524
 Obtained from 108.xyzwithin spere   12.6000004     [AA]
 Au  -5.46773254E-06  -9.22922300E-06  -11.5200005    
 Au  -5.46773254E-06  -9.22922300E-06  -8.64000034    
 Au  -5.46773254E-06  -9.22922300E-06  -5.76000023    
 Au  -5.46773254E-06  -9.22922300E-06  -2.88000011    
 Au  -5.46773254E-06  -9.22922300E-06   3.15636894E-09
 Au  -5.46773254E-06  -9.22922300E-06   2.88000011    
 Au  -5.46773254E-06  -9.22922300E-06   5.76000023    
 Au  -5.46773254E-06  -9.22922300E-06   8.64000034    
 Au  -5.46773254E-06  -9.22922300E-06   11.5200005    
 Au  -1.46768546      -2.02008939      -10.0799999    
 Au  -1.46768546      -2.02008939      -7.19999981    
 Au  -1.46768546      -2.02008939      -4.32000017    
 Au  -1.46768546      -2.02008939      -1.44000006    
 Au  -1.46768546      -2.02008939       1.44000006    
 Au  -1.46768546      -2.02008939       4.32000017    
 Au  -1.46768546      -2.02008939       7.19999981    
 Au  -1.46768546      -2.02008939       10.0799999    
 Au   1.46767449      -2.02008939      -10.0799999    
 Au   1.46767449      -2.02008939      -7.19999981    
 Au   1.46767449      -2.02008939      -4.32000017    
 Au   1.46767449      -2.02008939      -1.44000006    
 Au   1.46767449      -2.02008939       1.44000006    
 Au   1.46767449      -2.02008939       4.32000017    
 Au   1.46767449      -2.02008939       7.19999981    
 Au   1.46767449      -2.02008939       10.0799999    
 Au   2.37474442      0.771590769      -10.0799999    
 Au   2.37474442      0.771590769      -7.19999981    
 Au   2.37474442      0.771590769      -4.32000017    
 Au   2.37474442      0.771590769      -1.44000006    
 Au   2.37474442      0.771590769       1.44000006    
 Au   2.37474442      0.771590769       4.32000017    
 Au   2.37474442      0.771590769       7.19999981    
 Au   2.37474442      0.771590769       10.0799999    
 Au   4.53226721E-06   2.49695063      -10.0799999    
 Au   4.53226721E-06   2.49695063      -7.19999981    
 Au   4.53226721E-06   2.49695063      -4.32000017    
 Au   4.53226721E-06   2.49695063      -1.44000006    
 Au   4.53226721E-06   2.49695063       1.44000006    
 Au   4.53226721E-06   2.49695063       4.32000017    
 Au   4.53226721E-06   2.49695063       7.19999981    
 Au   4.53226721E-06   2.49695063       10.0799999    
 Au  -2.37475538      0.771600783      -10.0799999    
 Au  -2.37475538      0.771600783      -7.19999981    
 Au  -2.37475538      0.771600783      -4.32000017    
 Au  -2.37475538      0.771600783      -1.44000006    
 Au  -2.37475538      0.771600783       1.44000006    
 Au  -2.37475538      0.771600783       4.32000017    
 Au  -2.37475538      0.771600783       7.19999981    
 Au  -2.37475538      0.771600783       10.0799999    
 Au  -2.93535542      -4.04017925      -11.5200005    
 Au  -2.93535542      -4.04017925      -8.64000034    
 Au  -2.93535542      -4.04017925      -5.76000023    
 Au  -2.93535542      -4.04017925      -2.88000011    
 Au  -2.93535542      -4.04017925       3.15636894E-09
 Au  -2.93535542      -4.04017925       2.88000011    
 Au  -2.93535542      -4.04017925       5.76000023    
 Au  -2.93535542      -4.04017925       8.64000034    
 Au  -2.93535542      -4.04017925       11.5200005    
 Au  -5.46773254E-06  -4.04017925      -11.5200005    
 Au  -5.46773254E-06  -4.04017925      -8.64000034    
 Au  -5.46773254E-06  -4.04017925      -5.76000023    
 Au  -5.46773254E-06  -4.04017925      -2.88000011    
 Au  -5.46773254E-06  -4.04017925       3.15636894E-09
 Au  -5.46773254E-06  -4.04017925       2.88000011    
 Au  -5.46773254E-06  -4.04017925       5.76000023    
 Au  -5.46773254E-06  -4.04017925       8.64000034    
 Au  -5.46773254E-06  -4.04017925       11.5200005    
 Au   2.93534446      -4.04017925      -11.5200005    
 Au   2.93534446      -4.04017925      -8.64000034    
 Au   2.93534446      -4.04017925      -5.76000023    
 Au   2.93534446      -4.04017925      -2.88000011    
 Au   2.93534446      -4.04017925       3.15636894E-09
 Au   2.93534446      -4.04017925       2.88000011    
 Au   2.93534446      -4.04017925       5.76000023    
 Au   2.93534446      -4.04017925       8.64000034    
 Au   2.93534446      -4.04017925       11.5200005    
 Au   3.84242463      -1.24848914      -11.5200005    
 Au   3.84242463      -1.24848914      -8.64000034    
 Au   3.84242463      -1.24848914      -5.76000023    
 Au   3.84242463      -1.24848914      -2.88000011    
 Au   3.84242463      -1.24848914       3.15636894E-09
 Au   3.84242463      -1.24848914       2.88000011    
 Au   3.84242463      -1.24848914       5.76000023    
 Au   3.84242463      -1.24848914       8.64000034    
 Au   3.84242463      -1.24848914       11.5200005    
 Au   4.74949455       1.54319084      -11.5200005    
 Au   4.74949455       1.54319084      -8.64000034    
 Au   4.74949455       1.54319084      -5.76000023    
 Au   4.74949455       1.54319084      -2.88000011    
 Au   4.74949455       1.54319084       3.15636894E-09
 Au   4.74949455       1.54319084       2.88000011    
 Au   4.74949455       1.54319084       5.76000023    
 Au   4.74949455       1.54319084       8.64000034    
 Au   4.74949455       1.54319084       11.5200005    
 Au   2.37475443       3.26855063      -11.5200005    
 Au   2.37475443       3.26855063      -8.64000034    
 Au   2.37475443       3.26855063      -5.76000023    
 Au   2.37475443       3.26855063      -2.88000011    
 Au   2.37475443       3.26855063       3.15636894E-09
 Au   2.37475443       3.26855063       2.88000011    
 Au   2.37475443       3.26855063       5.76000023    
 Au   2.37475443       3.26855063       8.64000034    
 Au   2.37475443       3.26855063       11.5200005    
 Au   4.53226721E-06   4.99391079      -11.5200005    
 Au   4.53226721E-06   4.99391079      -8.64000034    
 Au   4.53226721E-06   4.99391079      -5.76000023    
 Au   4.53226721E-06   4.99391079      -2.88000011    
 Au   4.53226721E-06   4.99391079       3.15636894E-09
 Au   4.53226721E-06   4.99391079       2.88000011    
 Au   4.53226721E-06   4.99391079       5.76000023    
 Au   4.53226721E-06   4.99391079       8.64000034    
 Au   4.53226721E-06   4.99391079       11.5200005    
 Au  -2.37474537       3.26856065      -11.5200005    
 Au  -2.37474537       3.26856065      -8.64000034    
 Au  -2.37474537       3.26856065      -5.76000023    
 Au  -2.37474537       3.26856065      -2.88000011    
 Au  -2.37474537       3.26856065       3.15636894E-09
 Au  -2.37474537       3.26856065       2.88000011    
 Au  -2.37474537       3.26856065       5.76000023    
 Au  -2.37474537       3.26856065       8.64000034    
 Au  -2.37474537       3.26856065       11.5200005    
 Au  -4.74950504       1.54321086      -11.5200005    
 Au  -4.74950504       1.54321086      -8.64000034    
 Au  -4.74950504       1.54321086      -5.76000023    
 Au  -4.74950504       1.54321086      -2.88000011    
 Au  -4.74950504       1.54321086       3.15636894E-09
 Au  -4.74950504       1.54321086       2.88000011    
 Au  -4.74950504       1.54321086       5.76000023    
 Au  -4.74950504       1.54321086       8.64000034    
 Au  -4.74950504       1.54321086       11.5200005    
 Au  -3.84243560      -1.24846923      -11.5200005    
 Au  -3.84243560      -1.24846923      -8.64000034    
 Au  -3.84243560      -1.24846923      -5.76000023    
 Au  -3.84243560      -1.24846923      -2.88000011    
 Au  -3.84243560      -1.24846923       3.15636894E-09
 Au  -3.84243560      -1.24846923       2.88000011    
 Au  -3.84243560      -1.24846923       5.76000023    
 Au  -3.84243560      -1.24846923       8.64000034    
 Au  -3.84243560      -1.24846923       11.5200005    
 Au  -4.40303516      -6.06025887      -10.0799999    
 Au  -4.40303516      -6.06025887      -7.19999981    
 Au  -4.40303516      -6.06025887      -4.32000017    
 Au  -4.40303516      -6.06025887      -1.44000006    
 Au  -4.40303516      -6.06025887       1.44000006    
 Au  -4.40303516      -6.06025887       4.32000017    
 Au  -4.40303516      -6.06025887       7.19999981    
 Au  -4.40303516      -6.06025887       10.0799999    
 Au  -1.46768546      -6.06025887      -10.0799999    
 Au  -1.46768546      -6.06025887      -7.19999981    
 Au  -1.46768546      -6.06025887      -4.32000017    
 Au  -1.46768546      -6.06025887      -1.44000006    
 Au  -1.46768546      -6.06025887       1.44000006    
 Au  -1.46768546      -6.06025887       4.32000017    
 Au  -1.46768546      -6.06025887       7.19999981    
 Au  -1.46768546      -6.06025887       10.0799999    
 Au   1.46767449      -6.06025887      -10.0799999    
 Au   1.46767449      -6.06025887      -7.19999981    
 Au   1.46767449      -6.06025887      -4.32000017    
 Au   1.46767449      -6.06025887      -1.44000006    
 Au   1.46767449      -6.06025887       1.44000006    
 Au   1.46767449      -6.06025887       4.32000017    
 Au   1.46767449      -6.06025887       7.19999981    
 Au   1.46767449      -6.06025887       10.0799999    
 Au   4.40302467      -6.06025887      -10.0799999    
 Au   4.40302467      -6.06025887      -7.19999981    
 Au   4.40302467      -6.06025887      -4.32000017    
 Au   4.40302467      -6.06025887      -1.44000006    
 Au   4.40302467      -6.06025887       1.44000006    
 Au   4.40302467      -6.06025887       4.32000017    
 Au   4.40302467      -6.06025887       7.19999981    
 Au   4.40302467      -6.06025887       10.0799999    
 Au   5.31009483      -3.26857924      -10.0799999    
 Au   5.31009483      -3.26857924      -7.19999981    
 Au   5.31009483      -3.26857924      -4.32000017    
 Au   5.31009483      -3.26857924      -1.44000006    
 Au   5.31009483      -3.26857924       1.44000006    
 Au   5.31009483      -3.26857924       4.32000017    
 Au   5.31009483      -3.26857924       7.19999981    
 Au   5.31009483      -3.26857924       10.0799999    
 Au   6.21717453     -0.476899236      -10.0799999    
 Au   6.21717453     -0.476899236      -7.19999981    
 Au   6.21717453     -0.476899236      -4.32000017    
 Au   6.21717453     -0.476899236      -1.44000006    
 Au   6.21717453     -0.476899236       1.44000006    
 Au   6.21717453     -0.476899236       4.32000017    
 Au   6.21717453     -0.476899236       7.19999981    
 Au   6.21717453     -0.476899236       10.0799999    
 Au   7.12424469       2.31479073      -10.0799999    
 Au   7.12424469       2.31479073      -7.19999981    
 Au   7.12424469       2.31479073      -4.32000017    
 Au   7.12424469       2.31479073      -1.44000006    
 Au   7.12424469       2.31479073       1.44000006    
 Au   7.12424469       2.31479073       4.32000017    
 Au   7.12424469       2.31479073       7.19999981    
 Au   7.12424469       2.31479073       10.0799999    
 Au   4.74950457       4.04015112      -10.0799999    
 Au   4.74950457       4.04015112      -7.19999981    
 Au   4.74950457       4.04015112      -4.32000017    
 Au   4.74950457       4.04015112      -1.44000006    
 Au   4.74950457       4.04015112       1.44000006    
 Au   4.74950457       4.04015112       4.32000017    
 Au   4.74950457       4.04015112       7.19999981    
 Au   4.74950457       4.04015112       10.0799999    
 Au   2.37475443       5.76551104      -10.0799999    
 Au   2.37475443       5.76551104      -7.19999981    
 Au   2.37475443       5.76551104      -4.32000017    
 Au   2.37475443       5.76551104      -1.44000006    
 Au   2.37475443       5.76551104       1.44000006    
 Au   2.37475443       5.76551104       4.32000017    
 Au   2.37475443       5.76551104       7.19999981    
 Au   2.37475443       5.76551104       10.0799999    
 Au   1.45322665E-05   7.49087095      -10.0799999    
 Au   1.45322665E-05   7.49087095      -7.19999981    
 Au   1.45322665E-05   7.49087095      -4.32000017    
 Au   1.45322665E-05   7.49087095      -1.44000006    
 Au   1.45322665E-05   7.49087095       1.44000006    
 Au   1.45322665E-05   7.49087095       4.32000017    
 Au   1.45322665E-05   7.49087095       7.19999981    
 Au   1.45322665E-05   7.49087095       10.0799999    
 Au  -2.37474537       5.76552105      -10.0799999    
 Au  -2.37474537       5.76552105      -7.19999981    
 Au  -2.37474537       5.76552105      -4.32000017    
 Au  -2.37474537       5.76552105      -1.44000006    
 Au  -2.37474537       5.76552105       1.44000006    
 Au  -2.37474537       5.76552105       4.32000017    
 Au  -2.37474537       5.76552105       7.19999981    
 Au  -2.37474537       5.76552105       10.0799999    
 Au  -4.74949503       4.04017115      -10.0799999    
 Au  -4.74949503       4.04017115      -7.19999981    
 Au  -4.74949503       4.04017115      -4.32000017    
 Au  -4.74949503       4.04017115      -1.44000006    
 Au  -4.74949503       4.04017115       1.44000006    
 Au  -4.74949503       4.04017115       4.32000017    
 Au  -4.74949503       4.04017115       7.19999981    
 Au  -4.74949503       4.04017115       10.0799999    
 Au  -7.12424517       2.31483078      -10.0799999    
 Au  -7.12424517       2.31483078      -7.19999981    
 Au  -7.12424517       2.31483078      -4.32000017    
 Au  -7.12424517       2.31483078      -1.44000006    
 Au  -7.12424517       2.31483078       1.44000006    
 Au  -7.12424517       2.31483078       4.32000017    
 Au  -7.12424517       2.31483078       7.19999981    
 Au  -7.12424517       2.31483078       10.0799999    
 Au  -6.21718502     -0.476859242      -10.0799999    
 Au  -6.21718502     -0.476859242      -7.19999981    
 Au  -6.21718502     -0.476859242      -4.32000017    
 Au  -6.21718502     -0.476859242      -1.44000006    
 Au  -6.21718502     -0.476859242       1.44000006    
 Au  -6.21718502     -0.476859242       4.32000017    
 Au  -6.21718502     -0.476859242       7.19999981    
 Au  -6.21718502     -0.476859242       10.0799999    
 Au  -5.31012535      -3.26854920      -10.0799999    
 Au  -5.31012535      -3.26854920      -7.19999981    
 Au  -5.31012535      -3.26854920      -4.32000017    
 Au  -5.31012535      -3.26854920      -1.44000006    
 Au  -5.31012535      -3.26854920       1.44000006    
 Au  -5.31012535      -3.26854920       4.32000017    
 Au  -5.31012535      -3.26854920       7.19999981    
 Au  -5.31012535      -3.26854920       10.0799999    
 Au  -5.87070513      -8.08034992      -5.76000023    
 Au  -5.87070513      -8.08034992      -2.88000011    
 Au  -5.87070513      -8.08034992       3.15636894E-09
 Au  -5.87070513      -8.08034992       2.88000011    
 Au  -5.87070513      -8.08034992       5.76000023    
 Au  -2.93535542      -8.08034992      -8.64000034    
 Au  -2.93535542      -8.08034992      -5.76000023    
 Au  -2.93535542      -8.08034992      -2.88000011    
 Au  -2.93535542      -8.08034992       3.15636894E-09
 Au  -2.93535542      -8.08034992       2.88000011    
 Au  -2.93535542      -8.08034992       5.76000023    
 Au  -2.93535542      -8.08034992       8.64000034    
 Au  -5.46773254E-06  -8.08034992      -8.64000034    
 Au  -5.46773254E-06  -8.08034992      -5.76000023    
 Au  -5.46773254E-06  -8.08034992      -2.88000011    
 Au  -5.46773254E-06  -8.08034992       3.15636894E-09
 Au  -5.46773254E-06  -8.08034992       2.88000011    
 Au  -5.46773254E-06  -8.08034992       5.76000023    
 Au  -5.46773254E-06  -8.08034992       8.64000034    
 Au   2.93534446      -8.08034992      -8.64000034    
 Au   2.93534446      -8.08034992      -5.76000023    
 Au   2.93534446      -8.08034992      -2.88000011    
 Au   2.93534446      -8.08034992       3.15636894E-09
 Au   2.93534446      -8.08034992       2.88000011    
 Au   2.93534446      -8.08034992       5.76000023    
 Au   2.93534446      -8.08034992       8.64000034    
 Au   5.87069464      -8.08034992      -5.76000023    
 Au   5.87069464      -8.08034992      -2.88000011    
 Au   5.87069464      -8.08034992       3.15636894E-09
 Au   5.87069464      -8.08034992       2.88000011    
 Au   5.87069464      -8.08034992       5.76000023    
 Au   6.77777481      -5.28865910      -8.64000034    
 Au   6.77777481      -5.28865910      -5.76000023    
 Au   6.77777481      -5.28865910      -2.88000011    
 Au   6.77777481      -5.28865910       3.15636894E-09
 Au   6.77777481      -5.28865910       2.88000011    
 Au   6.77777481      -5.28865910       5.76000023    
 Au   6.77777481      -5.28865910       8.64000034    
 Au   7.68484497      -2.49697924      -8.64000034    
 Au   7.68484497      -2.49697924      -5.76000023    
 Au   7.68484497      -2.49697924      -2.88000011    
 Au   7.68484497      -2.49697924       3.15636894E-09
 Au   7.68484497      -2.49697924       2.88000011    
 Au   7.68484497      -2.49697924       5.76000023    
 Au   7.68484497      -2.49697924       8.64000034    
 Au   8.59192467      0.294700772      -8.64000034    
 Au   8.59192467      0.294700772      -5.76000023    
 Au   8.59192467      0.294700772      -2.88000011    
 Au   8.59192467      0.294700772       3.15636894E-09
 Au   8.59192467      0.294700772       2.88000011    
 Au   8.59192467      0.294700772       5.76000023    
 Au   8.59192467      0.294700772       8.64000034    
 Au   9.49900436       3.08639073      -5.76000023    
 Au   9.49900436       3.08639073      -2.88000011    
 Au   9.49900436       3.08639073       3.15636894E-09
 Au   9.49900436       3.08639073       2.88000011    
 Au   9.49900436       3.08639073       5.76000023    
 Au   7.12425470       4.81175089      -8.64000034    
 Au   7.12425470       4.81175089      -5.76000023    
 Au   7.12425470       4.81175089      -2.88000011    
 Au   7.12425470       4.81175089       3.15636894E-09
 Au   7.12425470       4.81175089       2.88000011    
 Au   7.12425470       4.81175089       5.76000023    
 Au   7.12425470       4.81175089       8.64000034    
 Au   4.74951458       6.53711081      -8.64000034    
 Au   4.74951458       6.53711081      -5.76000023    
 Au   4.74951458       6.53711081      -2.88000011    
 Au   4.74951458       6.53711081       3.15636894E-09
 Au   4.74951458       6.53711081       2.88000011    
 Au   4.74951458       6.53711081       5.76000023    
 Au   4.74951458       6.53711081       8.64000034    
 Au   2.37476444       8.26247025      -8.64000034    
 Au   2.37476444       8.26247025      -5.76000023    
 Au   2.37476444       8.26247025      -2.88000011    
 Au   2.37476444       8.26247025       3.15636894E-09
 Au   2.37476444       8.26247025       2.88000011    
 Au   2.37476444       8.26247025       5.76000023    
 Au   2.37476444       8.26247025       8.64000034    
 Au   1.45322665E-05   9.98783016      -5.76000023    
 Au   1.45322665E-05   9.98783016      -2.88000011    
 Au   1.45322665E-05   9.98783016       3.15636894E-09
 Au   1.45322665E-05   9.98783016       2.88000011    
 Au   1.45322665E-05   9.98783016       5.76000023    
 Au  -2.37473559       8.26248074      -8.64000034    
 Au  -2.37473559       8.26248074      -5.76000023    
 Au  -2.37473559       8.26248074      -2.88000011    
 Au  -2.37473559       8.26248074       3.15636894E-09
 Au  -2.37473559       8.26248074       2.88000011    
 Au  -2.37473559       8.26248074       5.76000023    
 Au  -2.37473559       8.26248074       8.64000034    
 Au  -4.74948502       6.53713083      -8.64000034    
 Au  -4.74948502       6.53713083      -5.76000023    
 Au  -4.74948502       6.53713083      -2.88000011    
 Au  -4.74948502       6.53713083       3.15636894E-09
 Au  -4.74948502       6.53713083       2.88000011    
 Au  -4.74948502       6.53713083       5.76000023    
 Au  -4.74948502       6.53713083       8.64000034    
 Au  -7.12424517       4.81178093      -8.64000034    
 Au  -7.12424517       4.81178093      -5.76000023    
 Au  -7.12424517       4.81178093      -2.88000011    
 Au  -7.12424517       4.81178093       3.15636894E-09
 Au  -7.12424517       4.81178093       2.88000011    
 Au  -7.12424517       4.81178093       5.76000023    
 Au  -7.12424517       4.81178093       8.64000034    
 Au  -9.49899578       3.08644080      -5.76000023    
 Au  -9.49899578       3.08644080      -2.88000011    
 Au  -9.49899578       3.08644080       3.15636894E-09
 Au  -9.49899578       3.08644080       2.88000011    
 Au  -9.49899578       3.08644080       5.76000023    
 Au  -8.59193611      0.294750750      -8.64000034    
 Au  -8.59193611      0.294750750      -5.76000023    
 Au  -8.59193611      0.294750750      -2.88000011    
 Au  -8.59193611      0.294750750       3.15636894E-09
 Au  -8.59193611      0.294750750       2.88000011    
 Au  -8.59193611      0.294750750       5.76000023    
 Au  -8.59193611      0.294750750       8.64000034    
 Au  -7.68487501      -2.49693918      -8.64000034    
 Au  -7.68487501      -2.49693918      -5.76000023    
 Au  -7.68487501      -2.49693918      -2.88000011    
 Au  -7.68487501      -2.49693918       3.15636894E-09
 Au  -7.68487501      -2.49693918       2.88000011    
 Au  -7.68487501      -2.49693918       5.76000023    
 Au  -7.68487501      -2.49693918       8.64000034    
 Au  -6.77780533      -5.28862906      -8.64000034    
 Au  -6.77780533      -5.28862906      -5.76000023    
 Au  -6.77780533      -5.28862906      -2.88000011    
 Au  -6.77780533      -5.28862906       3.15636894E-09
 Au  -6.77780533      -5.28862906       2.88000011    
 Au  -6.77780533      -5.28862906       5.76000023    
 Au  -6.77780533      -5.28862906       8.64000034    
 Au  -7.33838511      -10.1004295      -1.44000006    
 Au  -7.33838511      -10.1004295       1.44000006    
 Au  -4.40303516      -10.1004295      -4.32000017    
 Au  -4.40303516      -10.1004295      -1.44000006    
 Au  -4.40303516      -10.1004295       1.44000006    
 Au  -4.40303516      -10.1004295       4.32000017    
 Au  -1.46768546      -10.1004295      -7.19999981    
 Au  -1.46768546      -10.1004295      -4.32000017    
 Au  -1.46768546      -10.1004295      -1.44000006    
 Au  -1.46768546      -10.1004295       1.44000006    
 Au  -1.46768546      -10.1004295       4.32000017    
 Au  -1.46768546      -10.1004295       7.19999981    
 Au   1.46767449      -10.1004295      -7.19999981    
 Au   1.46767449      -10.1004295      -4.32000017    
 Au   1.46767449      -10.1004295      -1.44000006    
 Au   1.46767449      -10.1004295       1.44000006    
 Au   1.46767449      -10.1004295       4.32000017    
 Au   1.46767449      -10.1004295       7.19999981    
 Au   4.40302467      -10.1004295      -4.32000017    
 Au   4.40302467      -10.1004295      -1.44000006    
 Au   4.40302467      -10.1004295       1.44000006    
 Au   4.40302467      -10.1004295       4.32000017    
 Au   7.33837461      -10.1004295      -1.44000006    
 Au   7.33837461      -10.1004295       1.44000006    
 Au   8.24544430      -7.30874920      -4.32000017    
 Au   8.24544430      -7.30874920      -1.44000006    
 Au   8.24544430      -7.30874920       1.44000006    
 Au   8.24544430      -7.30874920       4.32000017    
 Au   9.15252399      -4.51705885      -7.19999981    
 Au   9.15252399      -4.51705885      -4.32000017    
 Au   9.15252399      -4.51705885      -1.44000006    
 Au   9.15252399      -4.51705885       1.44000006    
 Au   9.15252399      -4.51705885       4.32000017    
 Au   9.15252399      -4.51705885       7.19999981    
 Au   10.0595942      -1.72537923      -7.19999981    
 Au   10.0595942      -1.72537923      -4.32000017    
 Au   10.0595942      -1.72537923      -1.44000006    
 Au   10.0595942      -1.72537923       1.44000006    
 Au   10.0595942      -1.72537923       4.32000017    
 Au   10.0595942      -1.72537923       7.19999981    
 Au   10.9666739       1.06630087      -4.32000017    
 Au   10.9666739       1.06630087      -1.44000006    
 Au   10.9666739       1.06630087       1.44000006    
 Au   10.9666739       1.06630087       4.32000017    
 Au   11.8737545       3.85799074      -1.44000006    
 Au   11.8737545       3.85799074       1.44000006    
 Au   9.49900436       5.58335114      -4.32000017    
 Au   9.49900436       5.58335114      -1.44000006    
 Au   9.49900436       5.58335114       1.44000006    
 Au   9.49900436       5.58335114       4.32000017    
 Au   7.12426472       7.30871105      -7.19999981    
 Au   7.12426472       7.30871105      -4.32000017    
 Au   7.12426472       7.30871105      -1.44000006    
 Au   7.12426472       7.30871105       1.44000006    
 Au   7.12426472       7.30871105       4.32000017    
 Au   7.12426472       7.30871105       7.19999981    
 Au   4.74951458       9.03407001      -7.19999981    
 Au   4.74951458       9.03407001      -4.32000017    
 Au   4.74951458       9.03407001      -1.44000006    
 Au   4.74951458       9.03407001       1.44000006    
 Au   4.74951458       9.03407001       4.32000017    
 Au   4.74951458       9.03407001       7.19999981    
 Au   2.37477446       10.7594309      -4.32000017    
 Au   2.37477446       10.7594309      -1.44000006    
 Au   2.37477446       10.7594309       1.44000006    
 Au   2.37477446       10.7594309       4.32000017    
 Au   2.45322663E-05   12.4847908      -1.44000006    
 Au   2.45322663E-05   12.4847908       1.44000006    
 Au  -2.37472558       10.7594404      -4.32000017    
 Au  -2.37472558       10.7594404      -1.44000006    
 Au  -2.37472558       10.7594404       1.44000006    
 Au  -2.37472558       10.7594404       4.32000017    
 Au  -4.74948502       9.03409004      -7.19999981    
 Au  -4.74948502       9.03409004      -4.32000017    
 Au  -4.74948502       9.03409004      -1.44000006    
 Au  -4.74948502       9.03409004       1.44000006    
 Au  -4.74948502       9.03409004       4.32000017    
 Au  -4.74948502       9.03409004       7.19999981    
 Au  -7.12423515       7.30874109      -7.19999981    
 Au  -7.12423515       7.30874109      -4.32000017    
 Au  -7.12423515       7.30874109      -1.44000006    
 Au  -7.12423515       7.30874109       1.44000006    
 Au  -7.12423515       7.30874109       4.32000017    
 Au  -7.12423515       7.30874109       7.19999981    
 Au  -9.49898529       5.58340073      -4.32000017    
 Au  -9.49898529       5.58340073      -1.44000006    
 Au  -9.49898529       5.58340073       1.44000006    
 Au  -9.49898529       5.58340073       4.32000017    
 Au  -11.8737459       3.85805058      -1.44000006    
 Au  -11.8737459       3.85805058       1.44000006    
 Au  -10.9666853       1.06636083      -4.32000017    
 Au  -10.9666853       1.06636083      -1.44000006    
 Au  -10.9666853       1.06636083       1.44000006    
 Au  -10.9666853       1.06636083       4.32000017    
 Au  -10.0596161      -1.72532916      -7.19999981    
 Au  -10.0596161      -1.72532916      -4.32000017    
 Au  -10.0596161      -1.72532916      -1.44000006    
 Au  -10.0596161      -1.72532916       1.44000006    
 Au  -10.0596161      -1.72532916       4.32000017    
 Au  -10.0596161      -1.72532916       7.19999981    
 Au  -9.15255547      -4.51701927      -7.19999981    
 Au  -9.15255547      -4.51701927      -4.32000017    
 Au  -9.15255547      -4.51701927      -1.44000006    
 Au  -9.15255547      -4.51701927       1.44000006    
 Au  -9.15255547      -4.51701927       4.32000017    
 Au  -9.15255547      -4.51701927       7.19999981    
 Au  -8.24549580      -7.30869913      -4.32000017    
 Au  -8.24549580      -7.30869913      -1.44000006    
 Au  -8.24549580      -7.30869913       1.44000006    
 Au  -8.24549580      -7.30869913       4.32000017    
 Au  -2.93535542      -12.1205091       3.15636894E-09
 Au  -5.46773254E-06  -12.1205091      -2.88000011    
 Au  -5.46773254E-06  -12.1205091       3.15636894E-09
 Au  -5.46773254E-06  -12.1205091       2.88000011    
 Au   2.93534446      -12.1205091       3.15636894E-09
 Au   10.6201944      -6.53714895       3.15636894E-09
 Au   11.5272741      -3.74545932      -2.88000011    
 Au   11.5272741      -3.74545932       3.15636894E-09
 Au   11.5272741      -3.74545932       2.88000011    
 Au   12.4343538     -0.953779221       3.15636894E-09
 Au   9.49901390       8.08031082       3.15636894E-09
 Au   7.12426472       9.80567074      -2.88000011    
 Au   7.12426472       9.80567074       3.15636894E-09
 Au   7.12426472       9.80567074       2.88000011    
 Au   4.74952459       11.5310307       3.15636894E-09
 Au  -4.74947548       11.5310507       3.15636894E-09
 Au  -7.12422514       9.80570030      -2.88000011    
 Au  -7.12422514       9.80570030       3.15636894E-09
 Au  -7.12422514       9.80570030       2.88000011    
 Au  -9.49898529       8.08036041       3.15636894E-09
 Au  -12.4343653     -0.953719258       3.15636894E-09
 Au  -11.5273056      -3.74539924      -2.88000011    
 Au  -11.5273056      -3.74539924       3.15636894E-09
 Au  -11.5273056      -3.74539924       2.88000011    
 Au  -10.6202459      -6.53708887       3.15636894E-09
