810
 Obtained from Large211_slab.xyzwithin spere   15.0000000     [AA]
Au    1.177902   -2.179794   14.158028
Au    1.177902    0.705202   14.158028
Au    1.177902    3.590197   14.158028
Au   -1.177687   -3.622293   13.325201
Au   -1.177687   -0.737296   13.325201
Au   -1.177687    2.147699   13.325201
Au   -1.177687    5.032696   13.325201
Au    5.889081   -0.737296   13.325201
Au    5.889081    2.147699   13.325201
Au   -3.533276   -5.064790   12.492374
Au   -3.533276   -2.179794   12.492374
Au   -3.533276    0.705202   12.492374
Au   -3.533276    3.590197   12.492374
Au   -3.533276    6.475193   12.492374
Au    3.533492   -5.064790   12.492374
Au    3.533492   -2.179794   12.492374
Au    3.533492    0.705202   12.492374
Au    3.533492    3.590197   12.492374
Au    3.533492    6.475193   12.492374
Au   -5.888865   -6.507288   11.659548
Au   -5.888865   -3.622293   11.659548
Au   -5.888865   -0.737296   11.659548
Au   -5.888865    2.147699   11.659548
Au   -5.888865    5.032696   11.659548
Au    1.177902   -6.507288   11.659548
Au    1.177902   -3.622293   11.659548
Au    1.177902   -0.737296   11.659548
Au    1.177902    2.147699   11.659548
Au    1.177902    5.032696   11.659548
Au    1.177902    7.917690   11.659548
Au    8.244670   -3.622293   11.659548
Au    8.244670   -0.737296   11.659548
Au    8.244670    2.147699   11.659548
Au   -8.244453   -5.064790   10.826721
Au   -8.244453   -2.179794   10.826721
Au   -8.244453    0.705202   10.826721
Au   -8.244453    3.590197   10.826721
Au   -1.177687   -7.949785   10.826721
Au   -1.177687   -5.064790   10.826721
Au   -1.177687   -2.179794   10.826721
Au   -1.177687    0.705202   10.826721
Au   -1.177687    3.590197   10.826721
Au   -1.177687    6.475193   10.826721
Au   -1.177687    9.360188   10.826721
Au    5.889081   -7.949785   10.826721
Au    5.889081   -5.064790   10.826721
Au    5.889081   -2.179794   10.826721
Au    5.889081    0.705202   10.826721
Au    5.889081    3.590197   10.826721
Au    5.889081    6.475193   10.826721
Au  -10.600043   -0.737296    9.993895
Au  -10.600043    2.147699    9.993895
Au   -3.533276   -9.392283    9.993895
Au   -3.533276   -6.507288    9.993895
Au   -3.533276   -3.622293    9.993895
Au   -3.533276   -0.737296    9.993895
Au   -3.533276    2.147699    9.993895
Au   -3.533276    5.032696    9.993895
Au   -3.533276    7.917690    9.993895
Au    3.533492   -9.392283    9.993895
Au    3.533492   -6.507288    9.993895
Au    3.533492   -3.622293    9.993895
Au    3.533492   -0.737296    9.993895
Au    3.533492    2.147699    9.993895
Au    3.533492    5.032696    9.993895
Au    3.533492    7.917690    9.993895
Au   10.600259   -0.737296    9.993895
Au   10.600259    2.147699    9.993895
Au   -5.888865   -7.949785    9.161068
Au   -5.888865   -5.064790    9.161068
Au   -5.888865   -2.179794    9.161068
Au   -5.888865    0.705202    9.161068
Au   -5.888865    3.590197    9.161068
Au   -5.888865    6.475193    9.161068
Au   -5.888865    9.360188    9.161068
Au    1.177902  -10.834782    9.161068
Au    1.177902   -7.949785    9.161068
Au    1.177902   -5.064790    9.161068
Au    1.177902   -2.179794    9.161068
Au    1.177902    0.705202    9.161068
Au    1.177902    3.590197    9.161068
Au    1.177902    6.475193    9.161068
Au    1.177902    9.360188    9.161068
Au    8.244670   -7.949785    9.161068
Au    8.244670   -5.064790    9.161068
Au    8.244670   -2.179794    9.161068
Au    8.244670    0.705202    9.161068
Au    8.244670    3.590197    9.161068
Au    8.244670    6.475193    9.161068
Au   -8.244453   -6.507288    8.328241
Au   -8.244453   -3.622293    8.328241
Au   -8.244453   -0.737296    8.328241
Au   -8.244453    2.147699    8.328241
Au   -8.244453    5.032696    8.328241
Au   -8.244453    7.917690    8.328241
Au   -1.177687  -12.277279    8.328241
Au   -1.177687   -9.392283    8.328241
Au   -1.177687   -6.507288    8.328241
Au   -1.177687   -3.622293    8.328241
Au   -1.177687   -0.737296    8.328241
Au   -1.177687    2.147699    8.328241
Au   -1.177687    5.032696    8.328241
Au   -1.177687    7.917690    8.328241
Au   -1.177687   10.802687    8.328241
Au    5.889081   -9.392283    8.328241
Au    5.889081   -6.507288    8.328241
Au    5.889081   -3.622293    8.328241
Au    5.889081   -0.737296    8.328241
Au    5.889081    2.147699    8.328241
Au    5.889081    5.032696    8.328241
Au    5.889081    7.917690    8.328241
Au  -10.600043   -5.064790    7.495415
Au  -10.600043   -2.179794    7.495415
Au  -10.600043    0.705202    7.495415
Au  -10.600043    3.590197    7.495415
Au  -10.600043    6.475193    7.495415
Au   -3.533276  -10.834782    7.495415
Au   -3.533276   -7.949785    7.495415
Au   -3.533276   -5.064790    7.495415
Au   -3.533276   -2.179794    7.495415
Au   -3.533276    0.705202    7.495415
Au   -3.533276    3.590197    7.495415
Au   -3.533276    6.475193    7.495415
Au   -3.533276    9.360188    7.495415
Au   -3.533276   12.245184    7.495415
Au    3.533492  -10.834782    7.495415
Au    3.533492   -7.949785    7.495415
Au    3.533492   -5.064790    7.495415
Au    3.533492   -2.179794    7.495415
Au    3.533492    0.705202    7.495415
Au    3.533492    3.590197    7.495415
Au    3.533492    6.475193    7.495415
Au    3.533492    9.360188    7.495415
Au   10.600259   -5.064790    7.495415
Au   10.600259   -2.179794    7.495415
Au   10.600259    0.705202    7.495415
Au   10.600259    3.590197    7.495415
Au   10.600259    6.475193    7.495415
Au  -12.955632   -0.737296    6.662589
Au  -12.955632    2.147699    6.662589
Au   -5.888865   -9.392283    6.662589
Au   -5.888865   -6.507288    6.662589
Au   -5.888865   -3.622293    6.662589
Au   -5.888865   -0.737296    6.662589
Au   -5.888865    2.147699    6.662589
Au   -5.888865    5.032696    6.662589
Au   -5.888865    7.917690    6.662589
Au   -5.888865   10.802687    6.662589
Au    1.177902  -12.277279    6.662589
Au    1.177902   -9.392283    6.662589
Au    1.177902   -6.507288    6.662589
Au    1.177902   -3.622293    6.662589
Au    1.177902   -0.737296    6.662589
Au    1.177902    2.147699    6.662589
Au    1.177902    5.032696    6.662589
Au    1.177902    7.917690    6.662589
Au    1.177902   10.802687    6.662589
Au    8.244670   -9.392283    6.662589
Au    8.244670   -6.507288    6.662589
Au    8.244670   -3.622293    6.662589
Au    8.244670   -0.737296    6.662589
Au    8.244670    2.147699    6.662589
Au    8.244670    5.032696    6.662589
Au    8.244670    7.917690    6.662589
Au   -8.244453   -7.949785    5.829762
Au   -8.244453   -5.064790    5.829762
Au   -8.244453   -2.179794    5.829762
Au   -8.244453    0.705202    5.829762
Au   -8.244453    3.590197    5.829762
Au   -8.244453    6.475193    5.829762
Au   -8.244453    9.360188    5.829762
Au   -1.177687  -13.719777    5.829762
Au   -1.177687  -10.834782    5.829762
Au   -1.177687   -7.949785    5.829762
Au   -1.177687   -5.064790    5.829762
Au   -1.177687   -2.179794    5.829762
Au   -1.177687    0.705202    5.829762
Au   -1.177687    3.590197    5.829762
Au   -1.177687    6.475193    5.829762
Au   -1.177687    9.360188    5.829762
Au   -1.177687   12.245184    5.829762
Au    5.889081  -10.834782    5.829762
Au    5.889081   -7.949785    5.829762
Au    5.889081   -5.064790    5.829762
Au    5.889081   -2.179794    5.829762
Au    5.889081    0.705202    5.829762
Au    5.889081    3.590197    5.829762
Au    5.889081    6.475193    5.829762
Au    5.889081    9.360188    5.829762
Au   12.955848   -2.179794    5.829762
Au   12.955848    0.705202    5.829762
Au   12.955848    3.590197    5.829762
Au  -10.600043   -6.507288    4.996935
Au  -10.600043   -3.622293    4.996935
Au  -10.600043   -0.737296    4.996935
Au  -10.600043    2.147699    4.996935
Au  -10.600043    5.032696    4.996935
Au  -10.600043    7.917690    4.996935
Au   -3.533276  -12.277279    4.996935
Au   -3.533276   -9.392283    4.996935
Au   -3.533276   -6.507288    4.996935
Au   -3.533276   -3.622293    4.996935
Au   -3.533276   -0.737296    4.996935
Au   -3.533276    2.147699    4.996935
Au   -3.533276    5.032696    4.996935
Au   -3.533276    7.917690    4.996935
Au   -3.533276   10.802687    4.996935
Au   -3.533276   13.687681    4.996935
Au    3.533492  -12.277279    4.996935
Au    3.533492   -9.392283    4.996935
Au    3.533492   -6.507288    4.996935
Au    3.533492   -3.622293    4.996935
Au    3.533492   -0.737296    4.996935
Au    3.533492    2.147699    4.996935
Au    3.533492    5.032696    4.996935
Au    3.533492    7.917690    4.996935
Au    3.533492   10.802687    4.996935
Au   10.600259   -6.507288    4.996935
Au   10.600259   -3.622293    4.996935
Au   10.600259   -0.737296    4.996935
Au   10.600259    2.147699    4.996935
Au   10.600259    5.032696    4.996935
Au   10.600259    7.917690    4.996935
Au  -12.955632   -5.064790    4.164109
Au  -12.955632   -2.179794    4.164109
Au  -12.955632    0.705202    4.164109
Au  -12.955632    3.590197    4.164109
Au   -5.888865  -10.834782    4.164109
Au   -5.888865   -7.949785    4.164109
Au   -5.888865   -5.064790    4.164109
Au   -5.888865   -2.179794    4.164109
Au   -5.888865    0.705202    4.164109
Au   -5.888865    3.590197    4.164109
Au   -5.888865    6.475193    4.164109
Au   -5.888865    9.360188    4.164109
Au   -5.888865   12.245184    4.164109
Au    1.177902  -13.719777    4.164109
Au    1.177902  -10.834782    4.164109
Au    1.177902   -7.949785    4.164109
Au    1.177902   -5.064790    4.164109
Au    1.177902   -2.179794    4.164109
Au    1.177902    0.705202    4.164109
Au    1.177902    3.590197    4.164109
Au    1.177902    6.475193    4.164109
Au    1.177902    9.360188    4.164109
Au    1.177902   12.245184    4.164109
Au    8.244670  -10.834782    4.164109
Au    8.244670   -7.949785    4.164109
Au    8.244670   -5.064790    4.164109
Au    8.244670   -2.179794    4.164109
Au    8.244670    0.705202    4.164109
Au    8.244670    3.590197    4.164109
Au    8.244670    6.475193    4.164109
Au    8.244670    9.360188    4.164109
Au   -8.244453   -9.392283    3.331282
Au   -8.244453   -6.507288    3.331282
Au   -8.244453   -3.622293    3.331282
Au   -8.244453   -0.737296    3.331282
Au   -8.244453    2.147699    3.331282
Au   -8.244453    5.032696    3.331282
Au   -8.244453    7.917690    3.331282
Au   -8.244453   10.802687    3.331282
Au   -1.177687  -12.277279    3.331282
Au   -1.177687   -9.392283    3.331282
Au   -1.177687   -6.507288    3.331282
Au   -1.177687   -3.622293    3.331282
Au   -1.177687   -0.737296    3.331282
Au   -1.177687    2.147699    3.331282
Au   -1.177687    5.032696    3.331282
Au   -1.177687    7.917690    3.331282
Au   -1.177687   10.802687    3.331282
Au   -1.177687   13.687681    3.331282
Au    5.889081  -12.277279    3.331282
Au    5.889081   -9.392283    3.331282
Au    5.889081   -6.507288    3.331282
Au    5.889081   -3.622293    3.331282
Au    5.889081   -0.737296    3.331282
Au    5.889081    2.147699    3.331282
Au    5.889081    5.032696    3.331282
Au    5.889081    7.917690    3.331282
Au    5.889081   10.802687    3.331282
Au   12.955848   -3.622293    3.331282
Au   12.955848   -0.737296    3.331282
Au   12.955848    2.147699    3.331282
Au   12.955848    5.032696    3.331282
Au  -10.600043   -7.949785    2.498456
Au  -10.600043   -5.064790    2.498456
Au  -10.600043   -2.179794    2.498456
Au  -10.600043    0.705202    2.498456
Au  -10.600043    3.590197    2.498456
Au  -10.600043    6.475193    2.498456
Au  -10.600043    9.360188    2.498456
Au   -3.533276  -13.719777    2.498456
Au   -3.533276  -10.834782    2.498456
Au   -3.533276   -7.949785    2.498456
Au   -3.533276   -5.064790    2.498456
Au   -3.533276   -2.179794    2.498456
Au   -3.533276    0.705202    2.498456
Au   -3.533276    3.590197    2.498456
Au   -3.533276    6.475193    2.498456
Au   -3.533276    9.360188    2.498456
Au   -3.533276   12.245184    2.498456
Au    3.533492  -13.719777    2.498456
Au    3.533492  -10.834782    2.498456
Au    3.533492   -7.949785    2.498456
Au    3.533492   -5.064790    2.498456
Au    3.533492   -2.179794    2.498456
Au    3.533492    0.705202    2.498456
Au    3.533492    3.590197    2.498456
Au    3.533492    6.475193    2.498456
Au    3.533492    9.360188    2.498456
Au    3.533492   12.245184    2.498456
Au   10.600259   -7.949785    2.498456
Au   10.600259   -5.064790    2.498456
Au   10.600259   -2.179794    2.498456
Au   10.600259    0.705202    2.498456
Au   10.600259    3.590197    2.498456
Au   10.600259    6.475193    2.498456
Au   10.600259    9.360188    2.498456
Au  -12.955632   -6.507288    1.665629
Au  -12.955632   -3.622293    1.665629
Au  -12.955632   -0.737296    1.665629
Au  -12.955632    2.147699    1.665629
Au  -12.955632    5.032696    1.665629
Au   -5.888865  -12.277279    1.665629
Au   -5.888865   -9.392283    1.665629
Au   -5.888865   -6.507288    1.665629
Au   -5.888865   -3.622293    1.665629
Au   -5.888865   -0.737296    1.665629
Au   -5.888865    2.147699    1.665629
Au   -5.888865    5.032696    1.665629
Au   -5.888865    7.917690    1.665629
Au   -5.888865   10.802687    1.665629
Au   -5.888865   13.687681    1.665629
Au    1.177902  -12.277279    1.665629
Au    1.177902   -9.392283    1.665629
Au    1.177902   -6.507288    1.665629
Au    1.177902   -3.622293    1.665629
Au    1.177902   -0.737296    1.665629
Au    1.177902    2.147699    1.665629
Au    1.177902    5.032696    1.665629
Au    1.177902    7.917690    1.665629
Au    1.177902   10.802687    1.665629
Au    1.177902   13.687681    1.665629
Au    8.244670  -12.277279    1.665629
Au    8.244670   -9.392283    1.665629
Au    8.244670   -6.507288    1.665629
Au    8.244670   -3.622293    1.665629
Au    8.244670   -0.737296    1.665629
Au    8.244670    2.147699    1.665629
Au    8.244670    5.032696    1.665629
Au    8.244670    7.917690    1.665629
Au    8.244670   10.802687    1.665629
Au   -8.244453  -10.834782    0.832803
Au   -8.244453   -7.949785    0.832803
Au   -8.244453   -5.064790    0.832803
Au   -8.244453   -2.179794    0.832803
Au   -8.244453    0.705202    0.832803
Au   -8.244453    3.590197    0.832803
Au   -8.244453    6.475193    0.832803
Au   -8.244453    9.360188    0.832803
Au   -8.244453   12.245184    0.832803
Au   -1.177687  -13.719777    0.832803
Au   -1.177687  -10.834782    0.832803
Au   -1.177687   -7.949785    0.832803
Au   -1.177687   -5.064790    0.832803
Au   -1.177687   -2.179794    0.832803
Au   -1.177687    0.705202    0.832803
Au   -1.177687    3.590197    0.832803
Au   -1.177687    6.475193    0.832803
Au   -1.177687    9.360188    0.832803
Au   -1.177687   12.245184    0.832803
Au    5.889081  -13.719777    0.832803
Au    5.889081  -10.834782    0.832803
Au    5.889081   -7.949785    0.832803
Au    5.889081   -5.064790    0.832803
Au    5.889081   -2.179794    0.832803
Au    5.889081    0.705202    0.832803
Au    5.889081    3.590197    0.832803
Au    5.889081    6.475193    0.832803
Au    5.889081    9.360188    0.832803
Au    5.889081   12.245184    0.832803
Au   12.955848   -5.064790    0.832803
Au   12.955848   -2.179794    0.832803
Au   12.955848    0.705202    0.832803
Au   12.955848    3.590197    0.832803
Au   12.955848    6.475193    0.832803
Au  -10.600043   -9.392283   -0.000023
Au  -10.600043   -6.507288   -0.000023
Au  -10.600043   -3.622293   -0.000023
Au  -10.600043   -0.737296   -0.000023
Au  -10.600043    2.147699   -0.000023
Au  -10.600043    5.032696   -0.000023
Au  -10.600043    7.917690   -0.000023
Au   -3.533276  -12.277279   -0.000023
Au   -3.533276   -9.392283   -0.000023
Au   -3.533276   -6.507288   -0.000023
Au   -3.533276   -3.622293   -0.000023
Au   -3.533276   -0.737296   -0.000023
Au   -3.533276    2.147699   -0.000023
Au   -3.533276    5.032696   -0.000023
Au   -3.533276    7.917690   -0.000023
Au   -3.533276   10.802687   -0.000023
Au   -3.533276   13.687681   -0.000023
Au    3.533492  -12.277279   -0.000023
Au    3.533492   -9.392283   -0.000023
Au    3.533492   -6.507288   -0.000023
Au    3.533492   -3.622293   -0.000023
Au    3.533492   -0.737296   -0.000023
Au    3.533492    2.147699   -0.000023
Au    3.533492    5.032696   -0.000023
Au    3.533492    7.917690   -0.000023
Au    3.533492   10.802687   -0.000023
Au    3.533492   13.687681   -0.000023
Au   10.600259   -9.392283   -0.000023
Au   10.600259   -6.507288   -0.000023
Au   10.600259   -3.622293   -0.000023
Au   10.600259   -0.737296   -0.000023
Au   10.600259    2.147699   -0.000023
Au   10.600259    5.032696   -0.000023
Au   10.600259    7.917690   -0.000023
Au  -12.955632   -5.064790   -0.832850
Au  -12.955632   -2.179794   -0.832850
Au  -12.955632    0.705202   -0.832850
Au  -12.955632    3.590197   -0.832850
Au  -12.955632    6.475193   -0.832850
Au   -5.888865  -13.719777   -0.832850
Au   -5.888865  -10.834782   -0.832850
Au   -5.888865   -7.949785   -0.832850
Au   -5.888865   -5.064790   -0.832850
Au   -5.888865   -2.179794   -0.832850
Au   -5.888865    0.705202   -0.832850
Au   -5.888865    3.590197   -0.832850
Au   -5.888865    6.475193   -0.832850
Au   -5.888865    9.360188   -0.832850
Au   -5.888865   12.245184   -0.832850
Au    1.177902  -13.719777   -0.832850
Au    1.177902  -10.834782   -0.832850
Au    1.177902   -7.949785   -0.832850
Au    1.177902   -5.064790   -0.832850
Au    1.177902   -2.179794   -0.832850
Au    1.177902    0.705202   -0.832850
Au    1.177902    3.590197   -0.832850
Au    1.177902    6.475193   -0.832850
Au    1.177902    9.360188   -0.832850
Au    1.177902   12.245184   -0.832850
Au    8.244670  -10.834782   -0.832850
Au    8.244670   -7.949785   -0.832850
Au    8.244670   -5.064790   -0.832850
Au    8.244670   -2.179794   -0.832850
Au    8.244670    0.705202   -0.832850
Au    8.244670    3.590197   -0.832850
Au    8.244670    6.475193   -0.832850
Au    8.244670    9.360188   -0.832850
Au    8.244670   12.245184   -0.832850
Au   -8.244453  -12.277279   -1.665677
Au   -8.244453   -9.392283   -1.665677
Au   -8.244453   -6.507288   -1.665677
Au   -8.244453   -3.622293   -1.665677
Au   -8.244453   -0.737296   -1.665677
Au   -8.244453    2.147699   -1.665677
Au   -8.244453    5.032696   -1.665677
Au   -8.244453    7.917690   -1.665677
Au   -8.244453   10.802687   -1.665677
Au   -1.177687  -12.277279   -1.665677
Au   -1.177687   -9.392283   -1.665677
Au   -1.177687   -6.507288   -1.665677
Au   -1.177687   -3.622293   -1.665677
Au   -1.177687   -0.737296   -1.665677
Au   -1.177687    2.147699   -1.665677
Au   -1.177687    5.032696   -1.665677
Au   -1.177687    7.917690   -1.665677
Au   -1.177687   10.802687   -1.665677
Au   -1.177687   13.687681   -1.665677
Au    5.889081  -12.277279   -1.665677
Au    5.889081   -9.392283   -1.665677
Au    5.889081   -6.507288   -1.665677
Au    5.889081   -3.622293   -1.665677
Au    5.889081   -0.737296   -1.665677
Au    5.889081    2.147699   -1.665677
Au    5.889081    5.032696   -1.665677
Au    5.889081    7.917690   -1.665677
Au    5.889081   10.802687   -1.665677
Au    5.889081   13.687681   -1.665677
Au   12.955848   -6.507288   -1.665677
Au   12.955848   -3.622293   -1.665677
Au   12.955848   -0.737296   -1.665677
Au   12.955848    2.147699   -1.665677
Au   12.955848    5.032696   -1.665677
Au  -10.600043   -7.949785   -2.498503
Au  -10.600043   -5.064790   -2.498503
Au  -10.600043   -2.179794   -2.498503
Au  -10.600043    0.705202   -2.498503
Au  -10.600043    3.590197   -2.498503
Au  -10.600043    6.475193   -2.498503
Au  -10.600043    9.360188   -2.498503
Au   -3.533276  -13.719777   -2.498503
Au   -3.533276  -10.834782   -2.498503
Au   -3.533276   -7.949785   -2.498503
Au   -3.533276   -5.064790   -2.498503
Au   -3.533276   -2.179794   -2.498503
Au   -3.533276    0.705202   -2.498503
Au   -3.533276    3.590197   -2.498503
Au   -3.533276    6.475193   -2.498503
Au   -3.533276    9.360188   -2.498503
Au   -3.533276   12.245184   -2.498503
Au    3.533492  -13.719777   -2.498503
Au    3.533492  -10.834782   -2.498503
Au    3.533492   -7.949785   -2.498503
Au    3.533492   -5.064790   -2.498503
Au    3.533492   -2.179794   -2.498503
Au    3.533492    0.705202   -2.498503
Au    3.533492    3.590197   -2.498503
Au    3.533492    6.475193   -2.498503
Au    3.533492    9.360188   -2.498503
Au    3.533492   12.245184   -2.498503
Au   10.600259   -7.949785   -2.498503
Au   10.600259   -5.064790   -2.498503
Au   10.600259   -2.179794   -2.498503
Au   10.600259    0.705202   -2.498503
Au   10.600259    3.590197   -2.498503
Au   10.600259    6.475193   -2.498503
Au   10.600259    9.360188   -2.498503
Au  -12.955632   -6.507288   -3.331330
Au  -12.955632   -3.622293   -3.331330
Au  -12.955632   -0.737296   -3.331330
Au  -12.955632    2.147699   -3.331330
Au  -12.955632    5.032696   -3.331330
Au   -5.888865  -12.277279   -3.331330
Au   -5.888865   -9.392283   -3.331330
Au   -5.888865   -6.507288   -3.331330
Au   -5.888865   -3.622293   -3.331330
Au   -5.888865   -0.737296   -3.331330
Au   -5.888865    2.147699   -3.331330
Au   -5.888865    5.032696   -3.331330
Au   -5.888865    7.917690   -3.331330
Au   -5.888865   10.802687   -3.331330
Au    1.177902  -12.277279   -3.331330
Au    1.177902   -9.392283   -3.331330
Au    1.177902   -6.507288   -3.331330
Au    1.177902   -3.622293   -3.331330
Au    1.177902   -0.737296   -3.331330
Au    1.177902    2.147699   -3.331330
Au    1.177902    5.032696   -3.331330
Au    1.177902    7.917690   -3.331330
Au    1.177902   10.802687   -3.331330
Au    1.177902   13.687681   -3.331330
Au    8.244670   -9.392283   -3.331330
Au    8.244670   -6.507288   -3.331330
Au    8.244670   -3.622293   -3.331330
Au    8.244670   -0.737296   -3.331330
Au    8.244670    2.147699   -3.331330
Au    8.244670    5.032696   -3.331330
Au    8.244670    7.917690   -3.331330
Au    8.244670   10.802687   -3.331330
Au   -8.244453  -10.834782   -4.164156
Au   -8.244453   -7.949785   -4.164156
Au   -8.244453   -5.064790   -4.164156
Au   -8.244453   -2.179794   -4.164156
Au   -8.244453    0.705202   -4.164156
Au   -8.244453    3.590197   -4.164156
Au   -8.244453    6.475193   -4.164156
Au   -8.244453    9.360188   -4.164156
Au   -1.177687  -13.719777   -4.164156
Au   -1.177687  -10.834782   -4.164156
Au   -1.177687   -7.949785   -4.164156
Au   -1.177687   -5.064790   -4.164156
Au   -1.177687   -2.179794   -4.164156
Au   -1.177687    0.705202   -4.164156
Au   -1.177687    3.590197   -4.164156
Au   -1.177687    6.475193   -4.164156
Au   -1.177687    9.360188   -4.164156
Au   -1.177687   12.245184   -4.164156
Au    5.889081  -10.834782   -4.164156
Au    5.889081   -7.949785   -4.164156
Au    5.889081   -5.064790   -4.164156
Au    5.889081   -2.179794   -4.164156
Au    5.889081    0.705202   -4.164156
Au    5.889081    3.590197   -4.164156
Au    5.889081    6.475193   -4.164156
Au    5.889081    9.360188   -4.164156
Au    5.889081   12.245184   -4.164156
Au   12.955848   -5.064790   -4.164156
Au   12.955848   -2.179794   -4.164156
Au   12.955848    0.705202   -4.164156
Au   12.955848    3.590197   -4.164156
Au  -10.600043   -6.507288   -4.996983
Au  -10.600043   -3.622293   -4.996983
Au  -10.600043   -0.737296   -4.996983
Au  -10.600043    2.147699   -4.996983
Au  -10.600043    5.032696   -4.996983
Au  -10.600043    7.917690   -4.996983
Au   -3.533276  -12.277279   -4.996983
Au   -3.533276   -9.392283   -4.996983
Au   -3.533276   -6.507288   -4.996983
Au   -3.533276   -3.622293   -4.996983
Au   -3.533276   -0.737296   -4.996983
Au   -3.533276    2.147699   -4.996983
Au   -3.533276    5.032696   -4.996983
Au   -3.533276    7.917690   -4.996983
Au   -3.533276   10.802687   -4.996983
Au    3.533492  -12.277279   -4.996983
Au    3.533492   -9.392283   -4.996983
Au    3.533492   -6.507288   -4.996983
Au    3.533492   -3.622293   -4.996983
Au    3.533492   -0.737296   -4.996983
Au    3.533492    2.147699   -4.996983
Au    3.533492    5.032696   -4.996983
Au    3.533492    7.917690   -4.996983
Au    3.533492   10.802687   -4.996983
Au    3.533492   13.687681   -4.996983
Au   10.600259   -6.507288   -4.996983
Au   10.600259   -3.622293   -4.996983
Au   10.600259   -0.737296   -4.996983
Au   10.600259    2.147699   -4.996983
Au   10.600259    5.032696   -4.996983
Au   10.600259    7.917690   -4.996983
Au  -12.955632   -2.179794   -5.829809
Au  -12.955632    0.705202   -5.829809
Au  -12.955632    3.590197   -5.829809
Au   -5.888865  -10.834782   -5.829809
Au   -5.888865   -7.949785   -5.829809
Au   -5.888865   -5.064790   -5.829809
Au   -5.888865   -2.179794   -5.829809
Au   -5.888865    0.705202   -5.829809
Au   -5.888865    3.590197   -5.829809
Au   -5.888865    6.475193   -5.829809
Au   -5.888865    9.360188   -5.829809
Au    1.177902  -13.719777   -5.829809
Au    1.177902  -10.834782   -5.829809
Au    1.177902   -7.949785   -5.829809
Au    1.177902   -5.064790   -5.829809
Au    1.177902   -2.179794   -5.829809
Au    1.177902    0.705202   -5.829809
Au    1.177902    3.590197   -5.829809
Au    1.177902    6.475193   -5.829809
Au    1.177902    9.360188   -5.829809
Au    1.177902   12.245184   -5.829809
Au    8.244670   -7.949785   -5.829809
Au    8.244670   -5.064790   -5.829809
Au    8.244670   -2.179794   -5.829809
Au    8.244670    0.705202   -5.829809
Au    8.244670    3.590197   -5.829809
Au    8.244670    6.475193   -5.829809
Au    8.244670    9.360188   -5.829809
Au   -8.244453   -9.392283   -6.662636
Au   -8.244453   -6.507288   -6.662636
Au   -8.244453   -3.622293   -6.662636
Au   -8.244453   -0.737296   -6.662636
Au   -8.244453    2.147699   -6.662636
Au   -8.244453    5.032696   -6.662636
Au   -8.244453    7.917690   -6.662636
Au   -1.177687  -12.277279   -6.662636
Au   -1.177687   -9.392283   -6.662636
Au   -1.177687   -6.507288   -6.662636
Au   -1.177687   -3.622293   -6.662636
Au   -1.177687   -0.737296   -6.662636
Au   -1.177687    2.147699   -6.662636
Au   -1.177687    5.032696   -6.662636
Au   -1.177687    7.917690   -6.662636
Au   -1.177687   10.802687   -6.662636
Au    5.889081   -9.392283   -6.662636
Au    5.889081   -6.507288   -6.662636
Au    5.889081   -3.622293   -6.662636
Au    5.889081   -0.737296   -6.662636
Au    5.889081    2.147699   -6.662636
Au    5.889081    5.032696   -6.662636
Au    5.889081    7.917690   -6.662636
Au    5.889081   10.802687   -6.662636
Au   12.955848   -0.737296   -6.662636
Au   12.955848    2.147699   -6.662636
Au  -10.600043   -5.064790   -7.495462
Au  -10.600043   -2.179794   -7.495462
Au  -10.600043    0.705202   -7.495462
Au  -10.600043    3.590197   -7.495462
Au  -10.600043    6.475193   -7.495462
Au   -3.533276  -10.834782   -7.495462
Au   -3.533276   -7.949785   -7.495462
Au   -3.533276   -5.064790   -7.495462
Au   -3.533276   -2.179794   -7.495462
Au   -3.533276    0.705202   -7.495462
Au   -3.533276    3.590197   -7.495462
Au   -3.533276    6.475193   -7.495462
Au   -3.533276    9.360188   -7.495462
Au    3.533492  -10.834782   -7.495462
Au    3.533492   -7.949785   -7.495462
Au    3.533492   -5.064790   -7.495462
Au    3.533492   -2.179794   -7.495462
Au    3.533492    0.705202   -7.495462
Au    3.533492    3.590197   -7.495462
Au    3.533492    6.475193   -7.495462
Au    3.533492    9.360188   -7.495462
Au    3.533492   12.245184   -7.495462
Au   10.600259   -5.064790   -7.495462
Au   10.600259   -2.179794   -7.495462
Au   10.600259    0.705202   -7.495462
Au   10.600259    3.590197   -7.495462
Au   10.600259    6.475193   -7.495462
Au   -5.888865   -9.392283   -8.328289
Au   -5.888865   -6.507288   -8.328289
Au   -5.888865   -3.622293   -8.328289
Au   -5.888865   -0.737296   -8.328289
Au   -5.888865    2.147699   -8.328289
Au   -5.888865    5.032696   -8.328289
Au   -5.888865    7.917690   -8.328289
Au    1.177902  -12.277279   -8.328289
Au    1.177902   -9.392283   -8.328289
Au    1.177902   -6.507288   -8.328289
Au    1.177902   -3.622293   -8.328289
Au    1.177902   -0.737296   -8.328289
Au    1.177902    2.147699   -8.328289
Au    1.177902    5.032696   -8.328289
Au    1.177902    7.917690   -8.328289
Au    1.177902   10.802687   -8.328289
Au    8.244670   -6.507288   -8.328289
Au    8.244670   -3.622293   -8.328289
Au    8.244670   -0.737296   -8.328289
Au    8.244670    2.147699   -8.328289
Au    8.244670    5.032696   -8.328289
Au    8.244670    7.917690   -8.328289
Au   -8.244453   -7.949785   -9.161116
Au   -8.244453   -5.064790   -9.161116
Au   -8.244453   -2.179794   -9.161116
Au   -8.244453    0.705202   -9.161116
Au   -8.244453    3.590197   -9.161116
Au   -8.244453    6.475193   -9.161116
Au   -1.177687  -10.834782   -9.161116
Au   -1.177687   -7.949785   -9.161116
Au   -1.177687   -5.064790   -9.161116
Au   -1.177687   -2.179794   -9.161116
Au   -1.177687    0.705202   -9.161116
Au   -1.177687    3.590197   -9.161116
Au   -1.177687    6.475193   -9.161116
Au   -1.177687    9.360188   -9.161116
Au    5.889081   -7.949785   -9.161116
Au    5.889081   -5.064790   -9.161116
Au    5.889081   -2.179794   -9.161116
Au    5.889081    0.705202   -9.161116
Au    5.889081    3.590197   -9.161116
Au    5.889081    6.475193   -9.161116
Au    5.889081    9.360188   -9.161116
Au  -10.600043   -0.737296   -9.993942
Au  -10.600043    2.147699   -9.993942
Au   -3.533276   -9.392283   -9.993942
Au   -3.533276   -6.507288   -9.993942
Au   -3.533276   -3.622293   -9.993942
Au   -3.533276   -0.737296   -9.993942
Au   -3.533276    2.147699   -9.993942
Au   -3.533276    5.032696   -9.993942
Au   -3.533276    7.917690   -9.993942
Au    3.533492   -9.392283   -9.993942
Au    3.533492   -6.507288   -9.993942
Au    3.533492   -3.622293   -9.993942
Au    3.533492   -0.737296   -9.993942
Au    3.533492    2.147699   -9.993942
Au    3.533492    5.032696   -9.993942
Au    3.533492    7.917690   -9.993942
Au   10.600259   -0.737296   -9.993942
Au   10.600259    2.147699   -9.993942
Au   -5.888865   -7.949785  -10.826769
Au   -5.888865   -5.064790  -10.826769
Au   -5.888865   -2.179794  -10.826769
Au   -5.888865    0.705202  -10.826769
Au   -5.888865    3.590197  -10.826769
Au   -5.888865    6.475193  -10.826769
Au    1.177902   -7.949785  -10.826769
Au    1.177902   -5.064790  -10.826769
Au    1.177902   -2.179794  -10.826769
Au    1.177902    0.705202  -10.826769
Au    1.177902    3.590197  -10.826769
Au    1.177902    6.475193  -10.826769
Au    1.177902    9.360188  -10.826769
Au    8.244670   -5.064790  -10.826769
Au    8.244670   -2.179794  -10.826769
Au    8.244670    0.705202  -10.826769
Au    8.244670    3.590197  -10.826769
Au   -8.244453   -3.622293  -11.659595
Au   -8.244453   -0.737296  -11.659595
Au   -8.244453    2.147699  -11.659595
Au   -1.177687   -6.507288  -11.659595
Au   -1.177687   -3.622293  -11.659595
Au   -1.177687   -0.737296  -11.659595
Au   -1.177687    2.147699  -11.659595
Au   -1.177687    5.032696  -11.659595
Au   -1.177687    7.917690  -11.659595
Au    5.889081   -6.507288  -11.659595
Au    5.889081   -3.622293  -11.659595
Au    5.889081   -0.737296  -11.659595
Au    5.889081    2.147699  -11.659595
Au    5.889081    5.032696  -11.659595
Au   -3.533276   -5.064790  -12.492421
Au   -3.533276   -2.179794  -12.492421
Au   -3.533276    0.705202  -12.492421
Au   -3.533276    3.590197  -12.492421
Au   -3.533276    6.475193  -12.492421
Au    3.533492   -5.064790  -12.492421
Au    3.533492   -2.179794  -12.492421
Au    3.533492    0.705202  -12.492421
Au    3.533492    3.590197  -12.492421
Au    3.533492    6.475193  -12.492421
Au   -5.888865   -0.737296  -13.325248
Au   -5.888865    2.147699  -13.325248
Au    1.177902   -6.507288  -13.325248
Au    1.177902   -3.622293  -13.325248
Au    1.177902   -0.737296  -13.325248
Au    1.177902    2.147699  -13.325248
Au    1.177902    5.032696  -13.325248
Au   -1.177687   -2.179794  -14.158073
Au   -1.177687    0.705202  -14.158073
Au   -1.177687    3.590197  -14.158073
