          13
 icosaedre
  Au   0.00000   0.00000   0.00000     0
  Au   2.45412   1.51673   0.00000     0
  Au   2.45412  -1.51673   0.00000     0
  Au  -2.45412   1.51673   0.00000     0
  Au  -2.45412  -1.51673   0.00000     0
  Au   1.51673   0.00000   2.45412     0
  Au   1.51673   0.00000  -2.45412     0
  Au  -1.51673   0.00000   2.45412     0
  Au  -1.51673   0.00000  -2.45412     0
  Au   0.00000   2.45412   1.51673     0
  Au   0.00000   2.45412  -1.51673     0
  Au   0.00000  -2.45412   1.51673     0
  Au   0.00000  -2.45412  -1.51673     0
