          13
Au Au
Au      0.00000     0.00000    -2.88000  2
Au      0.00000     0.00000     0.00000  3
Au      0.00000     0.00000     2.88000  4
Au     -1.46768    -2.02008    -1.44000  5
Au     -1.46768    -2.02008     1.44000  6
Au      1.46768    -2.02008    -1.44000  7
Au      1.46768    -2.02008     1.44000  8
Au      2.37475     0.77160    -1.44000  9
Au      2.37475     0.77160     1.44000 10
Au      0.00001     2.49696    -1.44000  1
Au      0.00001     2.49696     1.44000  2
Au     -2.37475     0.77161    -1.44000  3
Au     -2.37475     0.77161     1.44000  4
