         146
 Au Au
  Au   0.00000   0.00000   0.00000   1
  Au   2.88000   0.00000   0.00000   1
  Au   5.76000   0.00000   0.00000   1
  Au   8.64000   0.00000   0.00000   1
  Au  11.52000   0.00000   0.00000   1
  Au  14.40000   0.00000   0.00000   1
  Au   0.00000   2.88000   0.00000   1
  Au   2.88000   2.88000   0.00000   1
  Au   5.76000   2.88000   0.00000   1
  Au   8.64000   2.88000   0.00000   1
  Au  11.52000   2.88000   0.00000   1
  Au  14.40000   2.88000   0.00000   1
  Au   0.00000   5.76000   0.00000   1
  Au   2.88000   5.76000   0.00000   1
  Au   5.76000   5.76000   0.00000   1
  Au   8.64000   5.76000   0.00000   1
  Au  11.52000   5.76000   0.00000   1
  Au  14.40000   5.76000   0.00000   1
  Au   0.00000   8.64000   0.00000   1
  Au   2.88000   8.64000   0.00000   1
  Au   5.76000   8.64000   0.00000   1
  Au   8.64000   8.64000   0.00000   1
  Au  11.52000   8.64000   0.00000   1
  Au  14.40000   8.64000   0.00000   1
  Au   0.00000  11.52000   0.00000   1
  Au   2.88000  11.52000   0.00000   1
  Au   5.76000  11.52000   0.00000   1
  Au   8.64000  11.52000   0.00000   1
  Au  11.52000  11.52000   0.00000   1
  Au  14.40000  11.52000   0.00000   1
  Au   0.00000  14.40000   0.00000   1
  Au   2.88000  14.40000   0.00000   1
  Au   5.76000  14.40000   0.00000   1
  Au   8.64000  14.40000   0.00000   1
  Au  11.52000  14.40000   0.00000   1
  Au  14.40000  14.40000   0.00000   1
  Au   1.44000   1.44000   2.03647   1
  Au   4.32000   1.44000   2.03647   1
  Au   7.20000   1.44000   2.03647   1
  Au  10.08000   1.44000   2.03647   1
  Au  12.96000   1.44000   2.03647   1
  Au   1.44000   4.32000   2.03647   1
  Au   4.32000   4.32000   2.03647   1
  Au   7.20000   4.32000   2.03647   1
  Au  10.08000   4.32000   2.03647   1
  Au  12.96000   4.32000   2.03647   1
  Au   1.44000   7.20000   2.03647   1
  Au   4.32000   7.20000   2.03647   1
  Au   7.20000   7.20000   2.03647   1
  Au  10.08000   7.20000   2.03647   1
  Au  12.96000   7.20000   2.03647   1
  Au   1.44000  10.08000   2.03647   1
  Au   4.32000  10.08000   2.03647   1
  Au   7.20000  10.08000   2.03647   1
  Au  10.08000  10.08000   2.03647   1
  Au  12.96000  10.08000   2.03647   1
  Au   1.44000  12.96000   2.03647   1
  Au   4.32000  12.96000   2.03647   1
  Au   7.20000  12.96000   2.03647   1
  Au  10.08000  12.96000   2.03647   1
  Au  12.96000  12.96000   2.03647   1
  Au   2.88000   2.88000   4.07294   1
  Au   5.76000   2.88000   4.07294   1
  Au   8.64000   2.88000   4.07294   1
  Au  11.52000   2.88000   4.07294   1
  Au   2.88000   5.76000   4.07294   1
  Au   5.76000   5.76000   4.07294   1
  Au   8.64000   5.76000   4.07294   1
  Au  11.52000   5.76000   4.07294   1
  Au   2.88000   8.64000   4.07294   1
  Au   5.76000   8.64000   4.07294   1
  Au   8.64000   8.64000   4.07294   1
  Au  11.52000   8.64000   4.07294   1
  Au   2.88000  11.52000   4.07294   1
  Au   5.76000  11.52000   4.07294   1
  Au   8.64000  11.52000   4.07294   1
  Au  11.52000  11.52000   4.07294   1
  Au   4.32000   4.32000   6.10940   1
  Au   7.20000   4.32000   6.10940   1
  Au  10.08000   4.32000   6.10940   1
  Au   4.32000   7.20000   6.10940   1
  Au   7.20000   7.20000   6.10940   1
  Au  10.08000   7.20000   6.10940   1
  Au   4.32000  10.08000   6.10940   1
  Au   7.20000  10.08000   6.10940   1
  Au  10.08000  10.08000   6.10940   1
  Au   5.76000   5.76000   8.14587   1
  Au   8.64000   5.76000   8.14587   1
  Au   5.76000   8.64000   8.14587   1
  Au   8.64000   8.64000   8.14587   1
  Au   7.20000   7.20000  10.18234   1
  Au   1.44000   1.44000  -2.03647   1
  Au   4.32000   1.44000  -2.03647   1
  Au   7.20000   1.44000  -2.03647   1
  Au  10.08000   1.44000  -2.03647   1
  Au  12.96000   1.44000  -2.03647   1
  Au   1.44000   4.32000  -2.03647   1
  Au   4.32000   4.32000  -2.03647   1
  Au   7.20000   4.32000  -2.03647   1
  Au  10.08000   4.32000  -2.03647   1
  Au  12.96000   4.32000  -2.03647   1
  Au   1.44000   7.20000  -2.03647   1
  Au   4.32000   7.20000  -2.03647   1
  Au   7.20000   7.20000  -2.03647   1
  Au  10.08000   7.20000  -2.03647   1
  Au  12.96000   7.20000  -2.03647   1
  Au   1.44000  10.08000  -2.03647   1
  Au   4.32000  10.08000  -2.03647   1
  Au   7.20000  10.08000  -2.03647   1
  Au  10.08000  10.08000  -2.03647   1
  Au  12.96000  10.08000  -2.03647   1
  Au   1.44000  12.96000  -2.03647   1
  Au   4.32000  12.96000  -2.03647   1
  Au   7.20000  12.96000  -2.03647   1
  Au  10.08000  12.96000  -2.03647   1
  Au  12.96000  12.96000  -2.03647   1
  Au   2.88000   2.88000  -4.07294   1
  Au   5.76000   2.88000  -4.07294   1
  Au   8.64000   2.88000  -4.07294   1
  Au  11.52000   2.88000  -4.07294   1
  Au   2.88000   5.76000  -4.07294   1
  Au   5.76000   5.76000  -4.07294   1
  Au   8.64000   5.76000  -4.07294   1
  Au  11.52000   5.76000  -4.07294   1
  Au   2.88000   8.64000  -4.07294   1
  Au   5.76000   8.64000  -4.07294   1
  Au   8.64000   8.64000  -4.07294   1
  Au  11.52000   8.64000  -4.07294   1
  Au   2.88000  11.52000  -4.07294   1
  Au   5.76000  11.52000  -4.07294   1
  Au   8.64000  11.52000  -4.07294   1
  Au  11.52000  11.52000  -4.07294   1
  Au   4.32000   4.32000  -6.10940   1
  Au   7.20000   4.32000  -6.10940   1
  Au  10.08000   4.32000  -6.10940   1
  Au   4.32000   7.20000  -6.10940   1
  Au   7.20000   7.20000  -6.10940   1
  Au  10.08000   7.20000  -6.10940   1
  Au   4.32000  10.08000  -6.10940   1
  Au   7.20000  10.08000  -6.10940   1
  Au  10.08000  10.08000  -6.10940   1
  Au   5.76000   5.76000  -8.14587   1
  Au   8.64000   5.76000  -8.14587   1
  Au   5.76000   8.64000  -8.14587   1
  Au   8.64000   8.64000  -8.14587   1
  Au   7.20000   7.20000 -10.18234   1
