19
ATOMIC_POSITIONS angstrom
Au    2.588338    1.468260   11.240286
Au    2.228306    5.642232   10.363643
Au    5.130296    3.234448    8.440130
Au    2.871825    1.829430    8.715735
Au    5.398399    2.103933   14.273002
Au    6.269959    4.366664   13.121840
Au    6.144258    4.124784   10.617368
Au    4.266035    5.400874   11.878823
Au    4.885403    1.337713   10.202536
Au    4.505955    0.440407   12.504197
Au    2.729664    4.371381    8.192475
Au    4.631742    5.654357    9.349324
Au    3.970010    4.265292   14.155320
Au    2.848156    1.955483   13.771666
Au    2.212398    3.876726   12.258619
Au    1.204742    3.237354    9.983397
Au    6.666645    1.967794   11.886393
Au    4.502721    2.868401   12.255167
Au    3.601511    3.615947   10.225022

