236
 Obtained from Au585_MDh5-4-2.xyzwithin spere   10.0000000     [AA]
 Au  -4.51568849E-06  -4.85151259E-06  -7.19999981    
 Au  -4.51568849E-06  -4.85151259E-06  -4.32000017    
 Au  -4.51568849E-06  -4.85151259E-06  -1.44000006    
 Au  -4.51568849E-06  -4.85151259E-06   1.44000006    
 Au  -4.51568849E-06  -4.85151259E-06   4.32000017    
 Au  -4.51568849E-06  -4.85151259E-06   7.19999981    
 Au  -1.46768451      -2.02008486      -8.64000034    
 Au  -1.46768451      -2.02008486      -5.76000023    
 Au  -1.46768451      -2.02008486      -2.88000011    
 Au  -1.46768451      -2.02008486       4.89063767E-09
 Au  -1.46768451      -2.02008486       2.88000011    
 Au  -1.46768451      -2.02008486       5.76000023    
 Au  -1.46768451      -2.02008486       8.64000034    
 Au   1.46767545      -2.02008486      -8.64000034    
 Au   1.46767545      -2.02008486      -5.76000023    
 Au   1.46767545      -2.02008486      -2.88000011    
 Au   1.46767545      -2.02008486       4.89063767E-09
 Au   1.46767545      -2.02008486       2.88000011    
 Au   1.46767545      -2.02008486       5.76000023    
 Au   1.46767545      -2.02008486       8.64000034    
 Au   2.37474537      0.771595180      -8.64000034    
 Au   2.37474537      0.771595180      -5.76000023    
 Au   2.37474537      0.771595180      -2.88000011    
 Au   2.37474537      0.771595180       4.89063767E-09
 Au   2.37474537      0.771595180       2.88000011    
 Au   2.37474537      0.771595180       5.76000023    
 Au   2.37474537      0.771595180       8.64000034    
 Au   5.48431126E-06   2.49695516      -8.64000034    
 Au   5.48431126E-06   2.49695516      -5.76000023    
 Au   5.48431126E-06   2.49695516      -2.88000011    
 Au   5.48431126E-06   2.49695516       4.89063767E-09
 Au   5.48431126E-06   2.49695516       2.88000011    
 Au   5.48431126E-06   2.49695516       5.76000023    
 Au   5.48431126E-06   2.49695516       8.64000034    
 Au  -2.37475443      0.771605194      -8.64000034    
 Au  -2.37475443      0.771605194      -5.76000023    
 Au  -2.37475443      0.771605194      -2.88000011    
 Au  -2.37475443      0.771605194       4.89063767E-09
 Au  -2.37475443      0.771605194       2.88000011    
 Au  -2.37475443      0.771605194       5.76000023    
 Au  -2.37475443      0.771605194       8.64000034    
 Au  -2.93535447      -4.04017496      -7.19999981    
 Au  -2.93535447      -4.04017496      -4.32000017    
 Au  -2.93535447      -4.04017496      -1.44000006    
 Au  -2.93535447      -4.04017496       1.44000006    
 Au  -2.93535447      -4.04017496       4.32000017    
 Au  -2.93535447      -4.04017496       7.19999981    
 Au  -4.51568849E-06  -4.04017496      -7.19999981    
 Au  -4.51568849E-06  -4.04017496      -4.32000017    
 Au  -4.51568849E-06  -4.04017496      -1.44000006    
 Au  -4.51568849E-06  -4.04017496       1.44000006    
 Au  -4.51568849E-06  -4.04017496       4.32000017    
 Au  -4.51568849E-06  -4.04017496       7.19999981    
 Au   2.93534541      -4.04017496      -7.19999981    
 Au   2.93534541      -4.04017496      -4.32000017    
 Au   2.93534541      -4.04017496      -1.44000006    
 Au   2.93534541      -4.04017496       1.44000006    
 Au   2.93534541      -4.04017496       4.32000017    
 Au   2.93534541      -4.04017496       7.19999981    
 Au   3.84242558      -1.24848485      -7.19999981    
 Au   3.84242558      -1.24848485      -4.32000017    
 Au   3.84242558      -1.24848485      -1.44000006    
 Au   3.84242558      -1.24848485       1.44000006    
 Au   3.84242558      -1.24848485       4.32000017    
 Au   3.84242558      -1.24848485       7.19999981    
 Au   4.74949551       1.54319513      -7.19999981    
 Au   4.74949551       1.54319513      -4.32000017    
 Au   4.74949551       1.54319513      -1.44000006    
 Au   4.74949551       1.54319513       1.44000006    
 Au   4.74949551       1.54319513       4.32000017    
 Au   4.74949551       1.54319513       7.19999981    
 Au   2.37475538       3.26855516      -7.19999981    
 Au   2.37475538       3.26855516      -4.32000017    
 Au   2.37475538       3.26855516      -1.44000006    
 Au   2.37475538       3.26855516       1.44000006    
 Au   2.37475538       3.26855516       4.32000017    
 Au   2.37475538       3.26855516       7.19999981    
 Au   5.48431126E-06   4.99391508      -7.19999981    
 Au   5.48431126E-06   4.99391508      -4.32000017    
 Au   5.48431126E-06   4.99391508      -1.44000006    
 Au   5.48431126E-06   4.99391508       1.44000006    
 Au   5.48431126E-06   4.99391508       4.32000017    
 Au   5.48431126E-06   4.99391508       7.19999981    
 Au  -2.37474442       3.26856518      -7.19999981    
 Au  -2.37474442       3.26856518      -4.32000017    
 Au  -2.37474442       3.26856518      -1.44000006    
 Au  -2.37474442       3.26856518       1.44000006    
 Au  -2.37474442       3.26856518       4.32000017    
 Au  -2.37474442       3.26856518       7.19999981    
 Au  -4.74950409       1.54321516      -7.19999981    
 Au  -4.74950409       1.54321516      -4.32000017    
 Au  -4.74950409       1.54321516      -1.44000006    
 Au  -4.74950409       1.54321516       1.44000006    
 Au  -4.74950409       1.54321516       4.32000017    
 Au  -4.74950409       1.54321516       7.19999981    
 Au  -3.84243464      -1.24846494      -7.19999981    
 Au  -3.84243464      -1.24846494      -4.32000017    
 Au  -3.84243464      -1.24846494      -1.44000006    
 Au  -3.84243464      -1.24846494       1.44000006    
 Au  -3.84243464      -1.24846494       4.32000017    
 Au  -3.84243464      -1.24846494       7.19999981    
 Au  -4.40303421      -6.06025457      -5.76000023    
 Au  -4.40303421      -6.06025457      -2.88000011    
 Au  -4.40303421      -6.06025457       4.89063767E-09
 Au  -4.40303421      -6.06025457       2.88000011    
 Au  -4.40303421      -6.06025457       5.76000023    
 Au  -1.46768451      -6.06025457      -5.76000023    
 Au  -1.46768451      -6.06025457      -2.88000011    
 Au  -1.46768451      -6.06025457       4.89063767E-09
 Au  -1.46768451      -6.06025457       2.88000011    
 Au  -1.46768451      -6.06025457       5.76000023    
 Au   1.46767545      -6.06025457      -5.76000023    
 Au   1.46767545      -6.06025457      -2.88000011    
 Au   1.46767545      -6.06025457       4.89063767E-09
 Au   1.46767545      -6.06025457       2.88000011    
 Au   1.46767545      -6.06025457       5.76000023    
 Au   4.40302563      -6.06025457      -5.76000023    
 Au   4.40302563      -6.06025457      -2.88000011    
 Au   4.40302563      -6.06025457       4.89063767E-09
 Au   4.40302563      -6.06025457       2.88000011    
 Au   4.40302563      -6.06025457       5.76000023    
 Au   5.31009579      -3.26857471      -5.76000023    
 Au   5.31009579      -3.26857471      -2.88000011    
 Au   5.31009579      -3.26857471       4.89063767E-09
 Au   5.31009579      -3.26857471       2.88000011    
 Au   5.31009579      -3.26857471       5.76000023    
 Au   6.21717548     -0.476894855      -5.76000023    
 Au   6.21717548     -0.476894855      -2.88000011    
 Au   6.21717548     -0.476894855       4.89063767E-09
 Au   6.21717548     -0.476894855       2.88000011    
 Au   6.21717548     -0.476894855       5.76000023    
 Au   7.12424564       2.31479526      -5.76000023    
 Au   7.12424564       2.31479526      -2.88000011    
 Au   7.12424564       2.31479526       4.89063767E-09
 Au   7.12424564       2.31479526       2.88000011    
 Au   7.12424564       2.31479526       5.76000023    
 Au   4.74950552       4.04015541      -5.76000023    
 Au   4.74950552       4.04015541      -2.88000011    
 Au   4.74950552       4.04015541       4.89063767E-09
 Au   4.74950552       4.04015541       2.88000011    
 Au   4.74950552       4.04015541       5.76000023    
 Au   2.37475538       5.76551533      -5.76000023    
 Au   2.37475538       5.76551533      -2.88000011    
 Au   2.37475538       5.76551533       4.89063767E-09
 Au   2.37475538       5.76551533       2.88000011    
 Au   2.37475538       5.76551533       5.76000023    
 Au   1.54843110E-05   7.49087524      -5.76000023    
 Au   1.54843110E-05   7.49087524      -2.88000011    
 Au   1.54843110E-05   7.49087524       4.89063767E-09
 Au   1.54843110E-05   7.49087524       2.88000011    
 Au   1.54843110E-05   7.49087524       5.76000023    
 Au  -2.37474442       5.76552534      -5.76000023    
 Au  -2.37474442       5.76552534      -2.88000011    
 Au  -2.37474442       5.76552534       4.89063767E-09
 Au  -2.37474442       5.76552534       2.88000011    
 Au  -2.37474442       5.76552534       5.76000023    
 Au  -4.74949408       4.04017544      -5.76000023    
 Au  -4.74949408       4.04017544      -2.88000011    
 Au  -4.74949408       4.04017544       4.89063767E-09
 Au  -4.74949408       4.04017544       2.88000011    
 Au  -4.74949408       4.04017544       5.76000023    
 Au  -7.12424421       2.31483531      -5.76000023    
 Au  -7.12424421       2.31483531      -2.88000011    
 Au  -7.12424421       2.31483531       4.89063767E-09
 Au  -7.12424421       2.31483531       2.88000011    
 Au  -7.12424421       2.31483531       5.76000023    
 Au  -6.21718407     -0.476854861      -5.76000023    
 Au  -6.21718407     -0.476854861      -2.88000011    
 Au  -6.21718407     -0.476854861       4.89063767E-09
 Au  -6.21718407     -0.476854861       2.88000011    
 Au  -6.21718407     -0.476854861       5.76000023    
 Au  -5.31012440      -3.26854467      -5.76000023    
 Au  -5.31012440      -3.26854467      -2.88000011    
 Au  -5.31012440      -3.26854467       4.89063767E-09
 Au  -5.31012440      -3.26854467       2.88000011    
 Au  -5.31012440      -3.26854467       5.76000023    
 Au  -2.93535447      -8.08034515      -4.32000017    
 Au  -2.93535447      -8.08034515      -1.44000006    
 Au  -2.93535447      -8.08034515       1.44000006    
 Au  -2.93535447      -8.08034515       4.32000017    
 Au  -4.51568849E-06  -8.08034515      -4.32000017    
 Au  -4.51568849E-06  -8.08034515      -1.44000006    
 Au  -4.51568849E-06  -8.08034515       1.44000006    
 Au  -4.51568849E-06  -8.08034515       4.32000017    
 Au   2.93534541      -8.08034515      -4.32000017    
 Au   2.93534541      -8.08034515      -1.44000006    
 Au   2.93534541      -8.08034515       1.44000006    
 Au   2.93534541      -8.08034515       4.32000017    
 Au   6.77777576      -5.28865480      -4.32000017    
 Au   6.77777576      -5.28865480      -1.44000006    
 Au   6.77777576      -5.28865480       1.44000006    
 Au   6.77777576      -5.28865480       4.32000017    
 Au   7.68484592      -2.49697471      -4.32000017    
 Au   7.68484592      -2.49697471      -1.44000006    
 Au   7.68484592      -2.49697471       1.44000006    
 Au   7.68484592      -2.49697471       4.32000017    
 Au   8.59192562      0.294705153      -4.32000017    
 Au   8.59192562      0.294705153      -1.44000006    
 Au   8.59192562      0.294705153       1.44000006    
 Au   8.59192562      0.294705153       4.32000017    
 Au   7.12425566       4.81175518      -4.32000017    
 Au   7.12425566       4.81175518      -1.44000006    
 Au   7.12425566       4.81175518       1.44000006    
 Au   7.12425566       4.81175518       4.32000017    
 Au   4.74951553       6.53711510      -4.32000017    
 Au   4.74951553       6.53711510      -1.44000006    
 Au   4.74951553       6.53711510       1.44000006    
 Au   4.74951553       6.53711510       4.32000017    
 Au   2.37476540       8.26247501      -4.32000017    
 Au   2.37476540       8.26247501      -1.44000006    
 Au   2.37476540       8.26247501       1.44000006    
 Au   2.37476540       8.26247501       4.32000017    
 Au  -2.37473464       8.26248550      -4.32000017    
 Au  -2.37473464       8.26248550      -1.44000006    
 Au  -2.37473464       8.26248550       1.44000006    
 Au  -2.37473464       8.26248550       4.32000017    
 Au  -4.74948406       6.53713512      -4.32000017    
 Au  -4.74948406       6.53713512      -1.44000006    
 Au  -4.74948406       6.53713512       1.44000006    
 Au  -4.74948406       6.53713512       4.32000017    
 Au  -7.12424421       4.81178522      -4.32000017    
 Au  -7.12424421       4.81178522      -1.44000006    
 Au  -7.12424421       4.81178522       1.44000006    
 Au  -7.12424421       4.81178522       4.32000017    
 Au  -8.59193516      0.294755131      -4.32000017    
 Au  -8.59193516      0.294755131      -1.44000006    
 Au  -8.59193516      0.294755131       1.44000006    
 Au  -8.59193516      0.294755131       4.32000017    
 Au  -7.68487406      -2.49693465      -4.32000017    
 Au  -7.68487406      -2.49693465      -1.44000006    
 Au  -7.68487406      -2.49693465       1.44000006    
 Au  -7.68487406      -2.49693465       4.32000017    
 Au  -6.77780437      -5.28862476      -4.32000017    
 Au  -6.77780437      -5.28862476      -1.44000006    
 Au  -6.77780437      -5.28862476       1.44000006    
 Au  -6.77780437      -5.28862476       4.32000017    
