237
 Obtained from Au1415_Ih.xyzwithin spere   10.0000000     [AA]
 Au   1.12444263E-06   1.45578554E-07  -6.40276028E-08
 Au   2.45412111       1.51673007      -6.40276028E-08
 Au   2.45412111      -1.51672983      -6.40276028E-08
 Au  -2.45411873       1.51673007      -6.40276028E-08
 Au  -2.45411873      -1.51672983      -6.40276028E-08
 Au   1.51673102       1.45578554E-07   2.45411992    
 Au   1.51673102       1.45578554E-07  -2.45411992    
 Au  -1.51672888       1.45578554E-07   2.45411992    
 Au  -1.51672888       1.45578554E-07  -2.45411992    
 Au   1.12444263E-06   2.45412016       1.51672983    
 Au   1.12444263E-06   2.45412016      -1.51673007    
 Au   1.12444263E-06  -2.45411968       1.51672983    
 Au   1.12444263E-06  -2.45411968      -1.51673007    
 Au   4.90825081       3.03346014      -6.40276028E-08
 Au   4.90825081      -3.03345966      -6.40276028E-08
 Au  -4.90824890       3.03346014      -6.40276028E-08
 Au  -4.90824890      -3.03345966      -6.40276028E-08
 Au   3.03346109       1.45578554E-07   4.90824986    
 Au   3.03346109       1.45578554E-07  -4.90824986    
 Au  -3.03345871       1.45578554E-07   4.90824986    
 Au  -3.03345871       1.45578554E-07  -4.90824986    
 Au   1.12444263E-06   4.90824986       3.03345990    
 Au   1.12444263E-06   4.90824986      -3.03345990    
 Au   1.12444263E-06  -4.90824986       3.03345990    
 Au   1.12444263E-06  -4.90824986      -3.03345990    
 Au   4.90825081       1.45578554E-07  -6.40276028E-08
 Au   3.97086120       1.51673007       2.45411992    
 Au   3.97086120      -1.51672983       2.45411992    
 Au   3.97086120       1.51673007      -2.45411992    
 Au   3.97086120      -1.51672983      -2.45411992    
 Au   2.45412111       3.97086024       1.51672983    
 Au   1.51673102       2.45412016       3.97086000    
 Au   2.45412111       3.97086024      -1.51673007    
 Au   1.51673102       2.45412016      -3.97086000    
 Au   1.12444263E-06   4.90824986      -6.40276028E-08
 Au   2.45412111      -3.97085977       1.51672983    
 Au   1.51673102      -2.45411968       3.97086000    
 Au   2.45412111      -3.97085977      -1.51673007    
 Au   1.51673102      -2.45411968      -3.97086000    
 Au   1.12444263E-06  -4.90824986      -6.40276028E-08
 Au  -4.90824890       1.45578554E-07  -6.40276028E-08
 Au  -3.97085881       1.51673007       2.45411992    
 Au  -3.97085881      -1.51672983       2.45411992    
 Au  -3.97085881       1.51673007      -2.45411992    
 Au  -3.97085881      -1.51672983      -2.45411992    
 Au  -2.45411873       3.97086024       1.51672983    
 Au  -1.51672888       2.45412016       3.97086000    
 Au  -2.45411873       3.97086024      -1.51673007    
 Au  -1.51672888       2.45412016      -3.97086000    
 Au  -2.45411873      -3.97085977       1.51672983    
 Au  -1.51672888      -2.45411968       3.97086000    
 Au  -2.45411873      -3.97085977      -1.51673007    
 Au  -1.51672888      -2.45411968      -3.97086000    
 Au   1.12444263E-06   1.45578554E-07   4.90824986    
 Au   1.12444263E-06   1.45578554E-07  -4.90824986    
 Au   7.36237097       4.55019999      -6.40276028E-08
 Au   7.36237097      -4.55019999      -6.40276028E-08
 Au  -7.36236906       4.55019999      -6.40276028E-08
 Au  -7.36236906      -4.55019999      -6.40276028E-08
 Au   4.55020094       1.45578554E-07   7.36237001    
 Au   4.55020094       1.45578554E-07  -7.36237001    
 Au  -4.55019903       1.45578554E-07   7.36237001    
 Au  -4.55019903       1.45578554E-07  -7.36237001    
 Au   1.12444263E-06   7.36237001       4.55019999    
 Au   1.12444263E-06   7.36237001      -4.55019999    
 Au   1.12444263E-06  -7.36237001       4.55019999    
 Au   1.12444263E-06  -7.36237001      -4.55019999    
 Au   7.36237097       1.51673007      -6.40276028E-08
 Au   7.36237097      -1.51672983      -6.40276028E-08
 Au   6.42498112       3.03346014       2.45411992    
 Au   5.48759079       1.51673007       4.90824986    
 Au   6.42498112      -3.03345966       2.45411992    
 Au   5.48759079      -1.51672983       4.90824986    
 Au   6.42498112       1.45578554E-07   2.45411992    
 Au   6.42498112       3.03346014      -2.45411992    
 Au   5.48759079       1.51673007      -4.90824986    
 Au   6.42498112      -3.03345966      -2.45411992    
 Au   5.48759079      -1.51672983      -4.90824986    
 Au   6.42498112       1.45578554E-07  -2.45411992    
 Au   4.90825081       5.48758984       1.51672983    
 Au   2.45412111       6.42498016       3.03345990    
 Au   3.03346109       2.45412016       6.42498016    
 Au   1.51673102       4.90824986       5.48758984    
 Au   3.97086120       3.97086024       3.97086000    
 Au   4.90825081       5.48758984      -1.51673007    
 Au   2.45412111       6.42498016      -3.03345990    
 Au   3.03346109       2.45412016      -6.42498016    
 Au   1.51673102       4.90824986      -5.48758984    
 Au   3.97086120       3.97086024      -3.97086000    
 Au   1.12444263E-06   7.36237001       1.51672983    
 Au   1.12444263E-06   7.36237001      -1.51673007    
 Au   2.45412111       6.42498016      -6.40276028E-08
 Au   4.90825081      -5.48758984       1.51672983    
 Au   2.45412111      -6.42498016       3.03345990    
 Au   3.03346109      -2.45411968       6.42498016    
 Au   1.51673102      -4.90824986       5.48758984    
 Au   3.97086120      -3.97085977       3.97086000    
 Au   4.90825081      -5.48758984      -1.51673007    
 Au   2.45412111      -6.42498016      -3.03345990    
 Au   3.03346109      -2.45411968      -6.42498016    
 Au   1.51673102      -4.90824986      -5.48758984    
 Au   3.97086120      -3.97085977      -3.97086000    
 Au   1.12444263E-06  -7.36237001       1.51672983    
 Au   1.12444263E-06  -7.36237001      -1.51673007    
 Au   2.45412111      -6.42498016      -6.40276028E-08
 Au  -7.36236906       1.51673007      -6.40276028E-08
 Au  -7.36236906      -1.51672983      -6.40276028E-08
 Au  -6.42497921       3.03346014       2.45411992    
 Au  -5.48758888       1.51673007       4.90824986    
 Au  -6.42497921      -3.03345966       2.45411992    
 Au  -5.48758888      -1.51672983       4.90824986    
 Au  -6.42497921       1.45578554E-07   2.45411992    
 Au  -6.42497921       3.03346014      -2.45411992    
 Au  -5.48758888       1.51673007      -4.90824986    
 Au  -6.42497921      -3.03345966      -2.45411992    
 Au  -5.48758888      -1.51672983      -4.90824986    
 Au  -6.42497921       1.45578554E-07  -2.45411992    
 Au  -4.90824890       5.48758984       1.51672983    
 Au  -2.45411873       6.42498016       3.03345990    
 Au  -3.03345871       2.45412016       6.42498016    
 Au  -1.51672888       4.90824986       5.48758984    
 Au  -3.97085881       3.97086024       3.97086000    
 Au  -4.90824890       5.48758984      -1.51673007    
 Au  -2.45411873       6.42498016      -3.03345990    
 Au  -3.03345871       2.45412016      -6.42498016    
 Au  -1.51672888       4.90824986      -5.48758984    
 Au  -3.97085881       3.97086024      -3.97086000    
 Au  -2.45411873       6.42498016      -6.40276028E-08
 Au  -4.90824890      -5.48758984       1.51672983    
 Au  -2.45411873      -6.42498016       3.03345990    
 Au  -3.03345871      -2.45411968       6.42498016    
 Au  -1.51672888      -4.90824986       5.48758984    
 Au  -3.97085881      -3.97085977       3.97086000    
 Au  -4.90824890      -5.48758984      -1.51673007    
 Au  -2.45411873      -6.42498016      -3.03345990    
 Au  -3.03345871      -2.45411968      -6.42498016    
 Au  -1.51672888      -4.90824986      -5.48758984    
 Au  -3.97085881      -3.97085977      -3.97086000    
 Au  -2.45411873      -6.42498016      -6.40276028E-08
 Au   1.51673102       1.45578554E-07   7.36237001    
 Au  -1.51672888       1.45578554E-07   7.36237001    
 Au   1.12444263E-06   2.45412016       6.42498016    
 Au   1.12444263E-06  -2.45411968       6.42498016    
 Au   1.51673102       1.45578554E-07  -7.36237001    
 Au  -1.51672888       1.45578554E-07  -7.36237001    
 Au   1.12444263E-06   2.45412016      -6.42498016    
 Au   1.12444263E-06  -2.45411968      -6.42498016    
 Au   9.81650066       1.45578554E-07  -6.40276028E-08
 Au   7.94171095       3.03346014       4.90824986    
 Au   7.94171095      -3.03345966       4.90824986    
 Au   8.87910080       1.51673007       2.45411992    
 Au   8.87910080      -1.51672983       2.45411992    
 Au   7.94171095       1.45578554E-07   4.90824986    
 Au   7.94171095       3.03346014      -4.90824986    
 Au   7.94171095      -3.03345966      -4.90824986    
 Au   8.87910080       1.51673007      -2.45411992    
 Au   8.87910080      -1.51672983      -2.45411992    
 Au   7.94171095       1.45578554E-07  -4.90824986    
 Au   4.90825081       7.94171000       3.03345990    
 Au   3.03346109       4.90824986       7.94171000    
 Au   6.42498112       5.48758984       3.97086000    
 Au   5.48759079       3.97086024       6.42498016    
 Au   3.97086120       6.42498016       5.48758984    
 Au   4.90825081       7.94171000      -3.03345990    
 Au   3.03346109       4.90824986      -7.94171000    
 Au   6.42498112       5.48758984      -3.97086000    
 Au   5.48759079       3.97086024      -6.42498016    
 Au   3.97086120       6.42498016      -5.48758984    
 Au   1.12444263E-06   9.81649971      -6.40276028E-08
 Au   4.90825081       7.94171000      -6.40276028E-08
 Au   2.45412111       8.87909985       1.51672983    
 Au   2.45412111       8.87909985      -1.51673007    
 Au   4.90825081      -7.94171000       3.03345990    
 Au   3.03346109      -4.90824986       7.94171000    
 Au   6.42498112      -5.48758984       3.97086000    
 Au   5.48759079      -3.97085977       6.42498016    
 Au   3.97086120      -6.42498016       5.48758984    
 Au   4.90825081      -7.94171000      -3.03345990    
 Au   3.03346109      -4.90824986      -7.94171000    
 Au   6.42498112      -5.48758984      -3.97086000    
 Au   5.48759079      -3.97085977      -6.42498016    
 Au   3.97086120      -6.42498016      -5.48758984    
 Au   1.12444263E-06  -9.81649971      -6.40276028E-08
 Au   4.90825081      -7.94171000      -6.40276028E-08
 Au   2.45412111      -8.87909985       1.51672983    
 Au   2.45412111      -8.87909985      -1.51673007    
 Au  -9.81649876       1.45578554E-07  -6.40276028E-08
 Au  -7.94170904       3.03346014       4.90824986    
 Au  -7.94170904      -3.03345966       4.90824986    
 Au  -8.87909889       1.51673007       2.45411992    
 Au  -8.87909889      -1.51672983       2.45411992    
 Au  -7.94170904       1.45578554E-07   4.90824986    
 Au  -7.94170904       3.03346014      -4.90824986    
 Au  -7.94170904      -3.03345966      -4.90824986    
 Au  -8.87909889       1.51673007      -2.45411992    
 Au  -8.87909889      -1.51672983      -2.45411992    
 Au  -7.94170904       1.45578554E-07  -4.90824986    
 Au  -4.90824890       7.94171000       3.03345990    
 Au  -3.03345871       4.90824986       7.94171000    
 Au  -6.42497921       5.48758984       3.97086000    
 Au  -5.48758888       3.97086024       6.42498016    
 Au  -3.97085881       6.42498016       5.48758984    
 Au  -4.90824890       7.94171000      -3.03345990    
 Au  -3.03345871       4.90824986      -7.94171000    
 Au  -6.42497921       5.48758984      -3.97086000    
 Au  -5.48758888       3.97086024      -6.42498016    
 Au  -3.97085881       6.42498016      -5.48758984    
 Au  -4.90824890       7.94171000      -6.40276028E-08
 Au  -2.45411873       8.87909985       1.51672983    
 Au  -2.45411873       8.87909985      -1.51673007    
 Au  -4.90824890      -7.94171000       3.03345990    
 Au  -3.03345871      -4.90824986       7.94171000    
 Au  -6.42497921      -5.48758984       3.97086000    
 Au  -5.48758888      -3.97085977       6.42498016    
 Au  -3.97085881      -6.42498016       5.48758984    
 Au  -4.90824890      -7.94171000      -3.03345990    
 Au  -3.03345871      -4.90824986      -7.94171000    
 Au  -6.42497921      -5.48758984      -3.97086000    
 Au  -5.48758888      -3.97085977      -6.42498016    
 Au  -3.97085881      -6.42498016      -5.48758984    
 Au  -4.90824890      -7.94171000      -6.40276028E-08
 Au  -2.45411873      -8.87909985       1.51672983    
 Au  -2.45411873      -8.87909985      -1.51673007    
 Au   1.12444263E-06   1.45578554E-07   9.81649971    
 Au   1.51673102       2.45412016       8.87909985    
 Au  -1.51672888       2.45412016       8.87909985    
 Au   1.12444263E-06   4.90824986       7.94171000    
 Au   1.51673102      -2.45411968       8.87909985    
 Au  -1.51672888      -2.45411968       8.87909985    
 Au   1.12444263E-06  -4.90824986       7.94171000    
 Au   1.12444263E-06   1.45578554E-07  -9.81649971    
 Au   1.51673102       2.45412016      -8.87909985    
 Au  -1.51672888       2.45412016      -8.87909985    
 Au   1.12444263E-06   4.90824986      -7.94171000    
 Au   1.51673102      -2.45411968      -8.87909985    
 Au  -1.51672888      -2.45411968      -8.87909985    
 Au   1.12444263E-06  -4.90824986      -7.94171000    
