         309
 icosaedre
  Au   0.00000   0.00000   0.00000    12
  Au   2.45412   1.51673   0.00000    12
  Au   2.45412  -1.51673   0.00000    12
  Au  -2.45412   1.51673   0.00000    12
  Au  -2.45412  -1.51673   0.00000    12
  Au   1.51673   0.00000   2.45412    12
  Au   1.51673   0.00000  -2.45412    12
  Au  -1.51673   0.00000   2.45412    12
  Au  -1.51673   0.00000  -2.45412    12
  Au   0.00000   2.45412   1.51673    12
  Au   0.00000   2.45412  -1.51673    12
  Au   0.00000  -2.45412   1.51673    12
  Au   0.00000  -2.45412  -1.51673    12
  Au   4.90825   3.03346   0.00000    12
  Au   4.90825  -3.03346   0.00000    12
  Au  -4.90825   3.03346   0.00000    12
  Au  -4.90825  -3.03346   0.00000    12
  Au   3.03346   0.00000   4.90825    12
  Au   3.03346   0.00000  -4.90825    12
  Au  -3.03346   0.00000   4.90825    12
  Au  -3.03346   0.00000  -4.90825    12
  Au   0.00000   4.90825   3.03346    12
  Au   0.00000   4.90825  -3.03346    12
  Au   0.00000  -4.90825   3.03346    12
  Au   0.00000  -4.90825  -3.03346    12
  Au   4.90825   0.00000   0.00000    12
  Au   3.97086   1.51673   2.45412    12
  Au   3.97086  -1.51673   2.45412    12
  Au   3.97086   1.51673  -2.45412    12
  Au   3.97086  -1.51673  -2.45412    12
  Au   2.45412   3.97086   1.51673    12
  Au   1.51673   2.45412   3.97086    12
  Au   2.45412   3.97086  -1.51673    12
  Au   1.51673   2.45412  -3.97086    12
  Au   0.00000   4.90825   0.00000    12
  Au   2.45412  -3.97086   1.51673    12
  Au   1.51673  -2.45412   3.97086    12
  Au   2.45412  -3.97086  -1.51673    12
  Au   1.51673  -2.45412  -3.97086    12
  Au   0.00000  -4.90825   0.00000    12
  Au  -4.90825   0.00000   0.00000    12
  Au  -3.97086   1.51673   2.45412    12
  Au  -3.97086  -1.51673   2.45412    12
  Au  -3.97086   1.51673  -2.45412    12
  Au  -3.97086  -1.51673  -2.45412    12
  Au  -2.45412   3.97086   1.51673    12
  Au  -1.51673   2.45412   3.97086    12
  Au  -2.45412   3.97086  -1.51673    12
  Au  -1.51673   2.45412  -3.97086    12
  Au  -2.45412  -3.97086   1.51673    12
  Au  -1.51673  -2.45412   3.97086    12
  Au  -2.45412  -3.97086  -1.51673    12
  Au  -1.51673  -2.45412  -3.97086    12
  Au   0.00000   0.00000   4.90825    12
  Au   0.00000   0.00000  -4.90825    12
  Au   7.36237   4.55020   0.00000    12
  Au   7.36237  -4.55020   0.00000    12
  Au  -7.36237   4.55020   0.00000    12
  Au  -7.36237  -4.55020   0.00000    12
  Au   4.55020   0.00000   7.36237    12
  Au   4.55020   0.00000  -7.36237    12
  Au  -4.55020   0.00000   7.36237    12
  Au  -4.55020   0.00000  -7.36237    12
  Au   0.00000   7.36237   4.55020    12
  Au   0.00000   7.36237  -4.55020    12
  Au   0.00000  -7.36237   4.55020    12
  Au   0.00000  -7.36237  -4.55020    12
  Au   7.36237   1.51673   0.00000    12
  Au   7.36237  -1.51673   0.00000    12
  Au   6.42498   3.03346   2.45412    12
  Au   5.48759   1.51673   4.90825    12
  Au   6.42498  -3.03346   2.45412    12
  Au   5.48759  -1.51673   4.90825    12
  Au   6.42498   0.00000   2.45412    12
  Au   6.42498   3.03346  -2.45412    12
  Au   5.48759   1.51673  -4.90825    12
  Au   6.42498  -3.03346  -2.45412    12
  Au   5.48759  -1.51673  -4.90825    12
  Au   6.42498   0.00000  -2.45412    12
  Au   4.90825   5.48759   1.51673    12
  Au   2.45412   6.42498   3.03346    12
  Au   3.03346   2.45412   6.42498    12
  Au   1.51673   4.90825   5.48759    12
  Au   3.97086   3.97086   3.97086    12
  Au   4.90825   5.48759  -1.51673    12
  Au   2.45412   6.42498  -3.03346    12
  Au   3.03346   2.45412  -6.42498    12
  Au   1.51673   4.90825  -5.48759    12
  Au   3.97086   3.97086  -3.97086    12
  Au   0.00000   7.36237   1.51673    12
  Au   0.00000   7.36237  -1.51673    12
  Au   2.45412   6.42498   0.00000    12
  Au   4.90825  -5.48759   1.51673    12
  Au   2.45412  -6.42498   3.03346    12
  Au   3.03346  -2.45412   6.42498    12
  Au   1.51673  -4.90825   5.48759    12
  Au   3.97086  -3.97086   3.97086    12
  Au   4.90825  -5.48759  -1.51673    12
  Au   2.45412  -6.42498  -3.03346    12
  Au   3.03346  -2.45412  -6.42498    12
  Au   1.51673  -4.90825  -5.48759    12
  Au   3.97086  -3.97086  -3.97086    12
  Au   0.00000  -7.36237   1.51673    12
  Au   0.00000  -7.36237  -1.51673    12
  Au   2.45412  -6.42498   0.00000    12
  Au  -7.36237   1.51673   0.00000    12
  Au  -7.36237  -1.51673   0.00000    12
  Au  -6.42498   3.03346   2.45412    12
  Au  -5.48759   1.51673   4.90825    12
  Au  -6.42498  -3.03346   2.45412    12
  Au  -5.48759  -1.51673   4.90825    12
  Au  -6.42498   0.00000   2.45412    12
  Au  -6.42498   3.03346  -2.45412    12
  Au  -5.48759   1.51673  -4.90825    12
  Au  -6.42498  -3.03346  -2.45412    12
  Au  -5.48759  -1.51673  -4.90825    12
  Au  -6.42498   0.00000  -2.45412    12
  Au  -4.90825   5.48759   1.51673    12
  Au  -2.45412   6.42498   3.03346    12
  Au  -3.03346   2.45412   6.42498    12
  Au  -1.51673   4.90825   5.48759    12
  Au  -3.97086   3.97086   3.97086    12
  Au  -4.90825   5.48759  -1.51673    12
  Au  -2.45412   6.42498  -3.03346    12
  Au  -3.03346   2.45412  -6.42498    12
  Au  -1.51673   4.90825  -5.48759    12
  Au  -3.97086   3.97086  -3.97086    12
  Au  -2.45412   6.42498   0.00000    12
  Au  -4.90825  -5.48759   1.51673    12
  Au  -2.45412  -6.42498   3.03346    12
  Au  -3.03346  -2.45412   6.42498    12
  Au  -1.51673  -4.90825   5.48759    12
  Au  -3.97086  -3.97086   3.97086    12
  Au  -4.90825  -5.48759  -1.51673    12
  Au  -2.45412  -6.42498  -3.03346    12
  Au  -3.03346  -2.45412  -6.42498    12
  Au  -1.51673  -4.90825  -5.48759    12
  Au  -3.97086  -3.97086  -3.97086    12
  Au  -2.45412  -6.42498   0.00000    12
  Au   1.51673   0.00000   7.36237    12
  Au  -1.51673   0.00000   7.36237    12
  Au   0.00000   2.45412   6.42498    12
  Au   0.00000  -2.45412   6.42498    12
  Au   1.51673   0.00000  -7.36237    12
  Au  -1.51673   0.00000  -7.36237    12
  Au   0.00000   2.45412  -6.42498    12
  Au   0.00000  -2.45412  -6.42498    12
  Au   9.81650   6.06693   0.00000     6
  Au   9.81650  -6.06693   0.00000     6
  Au  -9.81650   6.06693   0.00000     6
  Au  -9.81650  -6.06693   0.00000     6
  Au   6.06693   0.00000   9.81650     6
  Au   6.06693   0.00000  -9.81650     6
  Au  -6.06693   0.00000   9.81650     6
  Au  -6.06693   0.00000  -9.81650     6
  Au   0.00000   9.81650   6.06693     6
  Au   0.00000   9.81650  -6.06693     6
  Au   0.00000  -9.81650   6.06693     6
  Au   0.00000  -9.81650  -6.06693     6
  Au   9.81650   3.03346   0.00000     8
  Au   9.81650   0.00000   0.00000     8
  Au   9.81650  -3.03346   0.00000     8
  Au   8.87910   4.55020   2.45412     8
  Au   7.94171   3.03346   4.90825     8
  Au   7.00432   1.51673   7.36237     8
  Au   8.87910  -4.55020   2.45412     8
  Au   7.94171  -3.03346   4.90825     8
  Au   7.00432  -1.51673   7.36237     8
  Au   8.87910   1.51673   2.45412     9
  Au   8.87910  -1.51673   2.45412     9
  Au   7.94171  -0.00000   4.90825     9
  Au   8.87910   4.55020  -2.45412     8
  Au   7.94171   3.03346  -4.90825     8
  Au   7.00432   1.51673  -7.36237     8
  Au   8.87910  -4.55020  -2.45412     8
  Au   7.94171  -3.03346  -4.90825     8
  Au   7.00432  -1.51673  -7.36237     8
  Au   8.87910   1.51673  -2.45412     9
  Au   8.87910  -1.51673  -2.45412     9
  Au   7.94171  -0.00000  -4.90825     9
  Au   7.36237   7.00432   1.51673     8
  Au   4.90825   7.94171   3.03346     8
  Au   2.45412   8.87910   4.55020     8
  Au   4.55020   2.45412   8.87910     8
  Au   3.03346   4.90825   7.94171     8
  Au   1.51673   7.36237   7.00432     8
  Au   6.42498   5.48759   3.97086     9
  Au   5.48759   3.97086   6.42498     9
  Au   3.97086   6.42498   5.48759     9
  Au   7.36237   7.00432  -1.51673     8
  Au   4.90825   7.94171  -3.03346     8
  Au   2.45412   8.87910  -4.55020     8
  Au   4.55020   2.45412  -8.87910     8
  Au   3.03346   4.90825  -7.94171     8
  Au   1.51673   7.36237  -7.00432     8
  Au   6.42498   5.48759  -3.97086     9
  Au   5.48759   3.97086  -6.42498     9
  Au   3.97086   6.42498  -5.48759     9
  Au   0.00000   9.81650   3.03346     8
  Au   0.00000   9.81650   0.00000     8
  Au   0.00000   9.81650  -3.03346     8
  Au   4.90825   7.94171   0.00000     9
  Au   2.45412   8.87910   1.51673     9
  Au   2.45412   8.87910  -1.51673     9
  Au   7.36237  -7.00432   1.51673     8
  Au   4.90825  -7.94171   3.03346     8
  Au   2.45412  -8.87910   4.55020     8
  Au   4.55020  -2.45412   8.87910     8
  Au   3.03346  -4.90825   7.94171     8
  Au   1.51673  -7.36237   7.00432     8
  Au   6.42498  -5.48759   3.97086     9
  Au   5.48759  -3.97086   6.42498     9
  Au   3.97086  -6.42498   5.48759     9
  Au   7.36237  -7.00432  -1.51673     8
  Au   4.90825  -7.94171  -3.03346     8
  Au   2.45412  -8.87910  -4.55020     8
  Au   4.55020  -2.45412  -8.87910     8
  Au   3.03346  -4.90825  -7.94171     8
  Au   1.51673  -7.36237  -7.00432     8
  Au   6.42498  -5.48759  -3.97086     9
  Au   5.48759  -3.97086  -6.42498     9
  Au   3.97086  -6.42498  -5.48759     9
  Au   0.00000  -9.81650   3.03346     8
  Au   0.00000  -9.81650   0.00000     8
  Au   0.00000  -9.81650  -3.03346     8
  Au   4.90825  -7.94171   0.00000     9
  Au   2.45412  -8.87910   1.51673     9
  Au   2.45412  -8.87910  -1.51673     9
  Au  -9.81650   3.03346   0.00000     8
  Au  -9.81650   0.00000   0.00000     8
  Au  -9.81650  -3.03346   0.00000     8
  Au  -8.87910   4.55020   2.45412     8
  Au  -7.94171   3.03346   4.90825     8
  Au  -7.00432   1.51673   7.36237     8
  Au  -8.87910  -4.55020   2.45412     8
  Au  -7.94171  -3.03346   4.90825     8
  Au  -7.00432  -1.51673   7.36237     8
  Au  -8.87910   1.51673   2.45412     9
  Au  -8.87910  -1.51673   2.45412     9
  Au  -7.94171  -0.00000   4.90825     9
  Au  -8.87910   4.55020  -2.45412     8
  Au  -7.94171   3.03346  -4.90825     8
  Au  -7.00432   1.51673  -7.36237     8
  Au  -8.87910  -4.55020  -2.45412     8
  Au  -7.94171  -3.03346  -4.90825     8
  Au  -7.00432  -1.51673  -7.36237     8
  Au  -8.87910   1.51673  -2.45412     9
  Au  -8.87910  -1.51673  -2.45412     9
  Au  -7.94171  -0.00000  -4.90825     9
  Au  -7.36237   7.00432   1.51673     8
  Au  -4.90825   7.94171   3.03346     8
  Au  -2.45412   8.87910   4.55020     8
  Au  -4.55020   2.45412   8.87910     8
  Au  -3.03346   4.90825   7.94171     8
  Au  -1.51673   7.36237   7.00432     8
  Au  -6.42498   5.48759   3.97086     9
  Au  -5.48759   3.97086   6.42498     9
  Au  -3.97086   6.42498   5.48759     9
  Au  -7.36237   7.00432  -1.51673     8
  Au  -4.90825   7.94171  -3.03346     8
  Au  -2.45412   8.87910  -4.55020     8
  Au  -4.55020   2.45412  -8.87910     8
  Au  -3.03346   4.90825  -7.94171     8
  Au  -1.51673   7.36237  -7.00432     8
  Au  -6.42498   5.48759  -3.97086     9
  Au  -5.48759   3.97086  -6.42498     9
  Au  -3.97086   6.42498  -5.48759     9
  Au  -4.90825   7.94171   0.00000     9
  Au  -2.45412   8.87910   1.51673     9
  Au  -2.45412   8.87910  -1.51673     9
  Au  -7.36237  -7.00432   1.51673     8
  Au  -4.90825  -7.94171   3.03346     8
  Au  -2.45412  -8.87910   4.55020     8
  Au  -4.55020  -2.45412   8.87910     8
  Au  -3.03346  -4.90825   7.94171     8
  Au  -1.51673  -7.36237   7.00432     8
  Au  -6.42498  -5.48759   3.97086     9
  Au  -5.48759  -3.97086   6.42498     9
  Au  -3.97086  -6.42498   5.48759     9
  Au  -7.36237  -7.00432  -1.51673     8
  Au  -4.90825  -7.94171  -3.03346     8
  Au  -2.45412  -8.87910  -4.55020     8
  Au  -4.55020  -2.45412  -8.87910     8
  Au  -3.03346  -4.90825  -7.94171     8
  Au  -1.51673  -7.36237  -7.00432     8
  Au  -6.42498  -5.48759  -3.97086     9
  Au  -5.48759  -3.97086  -6.42498     9
  Au  -3.97086  -6.42498  -5.48759     9
  Au  -4.90825  -7.94171   0.00000     9
  Au  -2.45412  -8.87910   1.51673     9
  Au  -2.45412  -8.87910  -1.51673     9
  Au   3.03346   0.00000   9.81650     8
  Au   0.00000   0.00000   9.81650     8
  Au  -3.03346   0.00000   9.81650     8
  Au   1.51673   2.45412   8.87910     9
  Au  -1.51673   2.45412   8.87910     9
  Au  -0.00000   4.90825   7.94171     9
  Au   1.51673  -2.45412   8.87910     9
  Au  -1.51673  -2.45412   8.87910     9
  Au  -0.00000  -4.90825   7.94171     9
  Au   3.03346   0.00000  -9.81650     8
  Au   0.00000   0.00000  -9.81650     8
  Au  -3.03346   0.00000  -9.81650     8
  Au   1.51673   2.45412  -8.87910     9
  Au  -1.51673   2.45412  -8.87910     9
  Au  -0.00000   4.90825  -7.94171     9
  Au   1.51673  -2.45412  -8.87910     9
  Au  -1.51673  -2.45412  -8.87910     9
  Au  -0.00000  -4.90825  -7.94171     9
