32
ATOMIC_POSITIONS (angstrom) incomplete Dh
Au      -4.807441989  -0.411718760   8.356837134
Au      -2.044143420  -0.679728666   7.090303406
Au      -0.850754656  -2.926249185   8.721719630
Au       3.052978814  -1.002511546   6.637666992
Au      -4.107500247  -1.383616201   5.399184475
Au       2.145749862   2.059580958   7.756662535
Au       0.320640046  -1.088275314   4.763277910
Au      -1.871264354   3.568799035   4.836472102
Au      -1.001615201   1.304846706   8.976178859
Au      -5.493327117   0.996745664   5.953853264
Au      -0.592364390   1.532917852   6.230873293
Au       1.932101102   1.135903620   5.151303000
Au      -1.181889526   3.733748823  10.264541100
Au       0.929346011  -3.134977322   6.500765399
Au       2.767828016   0.028106356   9.515526441
Au      -0.570964305   1.222045871   3.510267853
Au      -3.523867789  -2.838911005   7.988833166
Au      -3.145180628   1.839641958   7.334735225
Au      -5.688953250   2.271480104   8.431958515
Au      -1.367366500   1.030391941  11.695627485
Au       0.899883450   3.809624135   5.991763921
Au      -1.714091968  -2.939147764   5.553490923
Au      -2.541626533  -1.028806549  10.024006470
Au      -3.675798561   4.125843829   9.019188928
Au       0.278805373  -0.912787586  10.612208470
Au      -4.397890965   3.856384765   6.098837488
Au       1.171509596   2.144450759  10.453719136
Au       0.640712987  -0.512091135   7.689988683
Au      -1.407536723   4.287068034   7.473478094
Au      -3.189655544   1.158816958   4.436496527
Au       1.932699387  -2.593132394   9.051920198
Au      -3.690099720   1.574175100  10.292671781
