45  
Low1 ATOMIC_POSITIONS (angstrom)
Au       3.882149149  -2.696937611   1.810797052
Au       5.565951129   2.042695126   0.977304337
Au       3.938974949   2.083607051   3.504117240
Au      -0.768083781   3.079142077  -1.224617279
Au       2.060557051  -5.719760875  -2.500965646
Au      -3.391291667  -0.755380663  -2.677024963
Au       4.284986174  -0.784331072   3.844775947
Au      -0.071168314  -4.064141654   4.415046356
Au       1.378144452  -0.269542303  -3.494111923
Au      -4.143718878  -1.886458586   2.249750623
Au       0.404003498   4.239208765   1.114422281
Au      -0.378093948  -1.244160934   4.851459218
Au       1.693883277  -3.033818377  -3.319033577
Au       0.681554735  -5.971722749  -0.110692960
Au       1.848180638   4.198430605  -1.265969242
Au       5.288985812  -2.581434223  -0.753849563
Au      -0.867381128  -1.935820698  -3.160280252
Au      -4.452694883  -3.568942638  -0.019208559
Au       5.987832725  -0.866309077   1.246650431
Au      -4.778975274  -0.764776618  -0.268971574
Au       1.434502345   3.180784105   3.506797703
Au      -3.013902343   1.372767954  -0.856602016
Au      -3.993607721   0.928772499   1.799416490
Au       4.060006101  -1.362530404  -3.357417162
Au      -1.202122003   0.929657519  -3.025221439
Au       2.125374588  -2.399230520   4.205970221
Au      -2.611332783  -2.925122312   4.407138016
Au       1.830901721   0.460679533   4.483863279
Au      -3.326091585  -4.639345950   2.295949905
Au       1.037812755   2.546727939  -3.345704060
Au       3.669112561   1.382698619  -3.457468549
Au      -0.519088006  -4.745507409  -2.622741931
Au       4.257696161  -4.071211759  -2.828016225
Au      -2.942291376  -0.177064335   4.152837077
Au       3.152359045  -4.441093396  -0.235833106
Au      -2.065264367  -5.134212925  -0.232357561
Au       3.133417358   3.530962232   1.199189886
Au       5.205194144   0.266557764  -1.281920194
Au      -3.041155348  -3.617080821  -2.475014752
Au      -0.726336636   1.462078749   3.920913711
Au      -1.826306806   2.614762979   1.377202019
Au      -0.766997613  -5.804768764   2.245022661
Au       1.658779839  -4.389663352   2.140250200
Au       4.435924375   3.049171466  -1.318611005
Au       6.409152649   0.874619033   3.364203459
