58
Au58 from ANN Bulusu JCP 2017
Au 1.287135550 4.085170964 3.507329893 
Au 3.543747696 -0.734130714 -3.196637611 
Au -4.838781920 -0.894604342 -0.007922171 
Au 1.332680822 -1.883810446 -0.329744209 
Au -2.202470540 -2.156140610 4.605005632 
Au -0.260018726 -0.196736495 4.863311663 
Au 3.456709029 -3.614148810 0.574799474 
Au -1.349801390 -1.710014905 -0.914009283 
Au 0.552299294 0.050853338 -2.301909266 
Au -2.207215263 0.529657406 0.758044492 
Au -0.541120015 -1.398285369 1.825662625 
Au 1.818091345 1.575098476 4.377391789 
Au 0.505002498 2.606820449 -4.123591945 
Au 0.365162952 -2.894154307 4.119717377 
Au 0.901299105 -4.366863892 1.865115866 
Au -1.505757873 -2.374676222 -4.039721215 
Au 2.168744984 -0.747991972 2.082052838 
Au -1.014570147 -4.652112038 -0.091309085 
Au -2.762076093 0.425618975 3.862386102 
Au -5.038749208 0.588211139 2.346308705 
Au -4.981404847 0.522552893 -2.407650963 
Au -3.857501220 -1.993918687 -2.380351286 
Au 0.304120029 1.340432357 1.899835654 
Au 4.857067892 0.859660911 0.857573335 
Au 5.154908071 1.034596846 -1.824290456 
Au 2.096851473 0.547875684 -5.109658180 
Au 2.378500138 -1.092972265 4.892169542 
Au 4.881367567 -1.678508312 1.958767835
Au 4.610338291 -1.494340293 -0.789298130 
Au 2.920450121 -3.230741459 -2.213466793 
Au 1.267606640 -1.993047866 -4.177754751 
Au -3.290365938 -0.288831339 -4.498249100 
Au -2.797559601 4.012908422 -0.089090300 
Au -3.199494663 2.722092721 2.364880402 
Au -0.936975223 2.445530289 4.137967692 
Au -3.856267001 3.025786914 -2.444579209 
Au -0.570434015 0.046017779 -4.970773333 
Au -2.479765798 -4.336173966 -2.364499987 
Au -3.483688307 -3.335941883 0.101936313 
Au -3.762660510 -1.839254321 2.380938222 
Au -1.816886435 -3.834431672 2.392148325 
Au 2.968870607 2.099555413 -3.009877391 
Au 1.444806753 4.100070596 -1.951210481 
Au 3.743110635 3.158691758 -0.531452460 
Au 3.318213800 2.720737657 2.208348609 
Au 4.265789055 0.500601172 3.566190659 
Au -4.624295561 1.935910006 -0.003956707 
Au 2.167787042 0.858517032 -0.225107716 
Au -2.202011781 2.248771228 -4.535665854 
Au -2.159733279 0.712065179 -2.052824796 
Au 2.997799602 -3.247709302 3.272871950 
Au 0.239969772 -3.986604574 -2.621265660 
Au -0.955816536 4.226190584 1.957239803 
Au 1.655883414 4.385630507 0.798833807 
Au -0.318787043 2.260360992 -0.618006705 
Au -0.501514598 5.478736504 -0.467828080 
Au -1.321206716 4.077100558 -2.645193783 
Au 1.632616067 -5.205678689 -0.639931699
