         675
Au Au
Au      0.00000     0.00000   -12.96000  2
Au      0.00000     0.00000   -10.08000  3
Au      0.00000     0.00000    -7.20000  4
Au      0.00000     0.00000    -4.32000  5
Au      0.00000     0.00000    -1.44000  6
Au      0.00000     0.00000     1.44000  7
Au      0.00000     0.00000     4.32000  8
Au      0.00000     0.00000     7.20000  9
Au      0.00000     0.00000    10.08000 10
Au      0.00000     0.00000    12.96000  1
Au     -1.46768    -2.02008   -11.52000  2
Au     -1.46768    -2.02008    -8.64000  3
Au     -1.46768    -2.02008    -5.76000  4
Au     -1.46768    -2.02008    -2.88000  5
Au     -1.46768    -2.02008     0.00000  6
Au     -1.46768    -2.02008     2.88000  7
Au     -1.46768    -2.02008     5.76000  8
Au     -1.46768    -2.02008     8.64000  9
Au     -1.46768    -2.02008    11.52000 10
Au      1.46768    -2.02008   -11.52000  1
Au      1.46768    -2.02008    -8.64000  2
Au      1.46768    -2.02008    -5.76000  3
Au      1.46768    -2.02008    -2.88000  4
Au      1.46768    -2.02008     0.00000  5
Au      1.46768    -2.02008     2.88000  6
Au      1.46768    -2.02008     5.76000  7
Au      1.46768    -2.02008     8.64000  8
Au      1.46768    -2.02008    11.52000  9
Au      2.37475     0.77160   -11.52000 10
Au      2.37475     0.77160    -8.64000  1
Au      2.37475     0.77160    -5.76000  2
Au      2.37475     0.77160    -2.88000  3
Au      2.37475     0.77160     0.00000  4
Au      2.37475     0.77160     2.88000  5
Au      2.37475     0.77160     5.76000  6
Au      2.37475     0.77160     8.64000  7
Au      2.37475     0.77160    11.52000  8
Au      0.00001     2.49696   -11.52000  9
Au      0.00001     2.49696    -8.64000 10
Au      0.00001     2.49696    -5.76000  1
Au      0.00001     2.49696    -2.88000  2
Au      0.00001     2.49696     0.00000  3
Au      0.00001     2.49696     2.88000  4
Au      0.00001     2.49696     5.76000  5
Au      0.00001     2.49696     8.64000  6
Au      0.00001     2.49696    11.52000  7
Au     -2.37475     0.77161   -11.52000  8
Au     -2.37475     0.77161    -8.64000  9
Au     -2.37475     0.77161    -5.76000 10
Au     -2.37475     0.77161    -2.88000  1
Au     -2.37475     0.77161     0.00000  2
Au     -2.37475     0.77161     2.88000  3
Au     -2.37475     0.77161     5.76000  4
Au     -2.37475     0.77161     8.64000  5
Au     -2.37475     0.77161    11.52000  6
Au     -2.93535    -4.04017   -10.08000  7
Au     -2.93535    -4.04017    -7.20000  8
Au     -2.93535    -4.04017    -4.32000  9
Au     -2.93535    -4.04017    -1.44000 10
Au     -2.93535    -4.04017     1.44000  1
Au     -2.93535    -4.04017     4.32000  2
Au     -2.93535    -4.04017     7.20000  3
Au     -2.93535    -4.04017    10.08000  4
Au      0.00000    -4.04017   -10.08000  5
Au      0.00000    -4.04017    -7.20000  6
Au      0.00000    -4.04017    -4.32000  7
Au      0.00000    -4.04017    -1.44000  8
Au      0.00000    -4.04017     1.44000  9
Au      0.00000    -4.04017     4.32000 10
Au      0.00000    -4.04017     7.20000  1
Au      0.00000    -4.04017    10.08000  2
Au      2.93535    -4.04017   -10.08000  3
Au      2.93535    -4.04017    -7.20000  4
Au      2.93535    -4.04017    -4.32000  5
Au      2.93535    -4.04017    -1.44000  6
Au      2.93535    -4.04017     1.44000  7
Au      2.93535    -4.04017     4.32000  8
Au      2.93535    -4.04017     7.20000  9
Au      2.93535    -4.04017    10.08000 10
Au      3.84243    -1.24848   -10.08000  1
Au      3.84243    -1.24848    -7.20000  2
Au      3.84243    -1.24848    -4.32000  3
Au      3.84243    -1.24848    -1.44000  4
Au      3.84243    -1.24848     1.44000  5
Au      3.84243    -1.24848     4.32000  6
Au      3.84243    -1.24848     7.20000  7
Au      3.84243    -1.24848    10.08000  8
Au      4.74950     1.54320   -10.08000  9
Au      4.74950     1.54320    -7.20000 10
Au      4.74950     1.54320    -4.32000  1
Au      4.74950     1.54320    -1.44000  2
Au      4.74950     1.54320     1.44000  3
Au      4.74950     1.54320     4.32000  4
Au      4.74950     1.54320     7.20000  5
Au      4.74950     1.54320    10.08000  6
Au      2.37476     3.26856   -10.08000  7
Au      2.37476     3.26856    -7.20000  8
Au      2.37476     3.26856    -4.32000  9
Au      2.37476     3.26856    -1.44000 10
Au      2.37476     3.26856     1.44000  1
Au      2.37476     3.26856     4.32000  2
Au      2.37476     3.26856     7.20000  3
Au      2.37476     3.26856    10.08000  4
Au      0.00001     4.99392   -10.08000  5
Au      0.00001     4.99392    -7.20000  6
Au      0.00001     4.99392    -4.32000  7
Au      0.00001     4.99392    -1.44000  8
Au      0.00001     4.99392     1.44000  9
Au      0.00001     4.99392     4.32000 10
Au      0.00001     4.99392     7.20000  1
Au      0.00001     4.99392    10.08000  2
Au     -2.37474     3.26857   -10.08000  3
Au     -2.37474     3.26857    -7.20000  4
Au     -2.37474     3.26857    -4.32000  5
Au     -2.37474     3.26857    -1.44000  6
Au     -2.37474     3.26857     1.44000  7
Au     -2.37474     3.26857     4.32000  8
Au     -2.37474     3.26857     7.20000  9
Au     -2.37474     3.26857    10.08000 10
Au     -4.74950     1.54322   -10.08000  1
Au     -4.74950     1.54322    -7.20000  2
Au     -4.74950     1.54322    -4.32000  3
Au     -4.74950     1.54322    -1.44000  4
Au     -4.74950     1.54322     1.44000  5
Au     -4.74950     1.54322     4.32000  6
Au     -4.74950     1.54322     7.20000  7
Au     -4.74950     1.54322    10.08000  8
Au     -3.84243    -1.24846   -10.08000  9
Au     -3.84243    -1.24846    -7.20000 10
Au     -3.84243    -1.24846    -4.32000  1
Au     -3.84243    -1.24846    -1.44000  2
Au     -3.84243    -1.24846     1.44000  3
Au     -3.84243    -1.24846     4.32000  4
Au     -3.84243    -1.24846     7.20000  5
Au     -3.84243    -1.24846    10.08000  6
Au     -4.40303    -6.06025    -8.64000  7
Au     -4.40303    -6.06025    -5.76000  8
Au     -4.40303    -6.06025    -2.88000  9
Au     -4.40303    -6.06025     0.00000 10
Au     -4.40303    -6.06025     2.88000  1
Au     -4.40303    -6.06025     5.76000  2
Au     -4.40303    -6.06025     8.64000  3
Au     -1.46768    -6.06025    -8.64000  4
Au     -1.46768    -6.06025    -5.76000  5
Au     -1.46768    -6.06025    -2.88000  6
Au     -1.46768    -6.06025     0.00000  7
Au     -1.46768    -6.06025     2.88000  8
Au     -1.46768    -6.06025     5.76000  9
Au     -1.46768    -6.06025     8.64000 10
Au      1.46768    -6.06025    -8.64000  1
Au      1.46768    -6.06025    -5.76000  2
Au      1.46768    -6.06025    -2.88000  3
Au      1.46768    -6.06025     0.00000  4
Au      1.46768    -6.06025     2.88000  5
Au      1.46768    -6.06025     5.76000  6
Au      1.46768    -6.06025     8.64000  7
Au      4.40303    -6.06025    -8.64000  8
Au      4.40303    -6.06025    -5.76000  9
Au      4.40303    -6.06025    -2.88000 10
Au      4.40303    -6.06025     0.00000  1
Au      4.40303    -6.06025     2.88000  2
Au      4.40303    -6.06025     5.76000  3
Au      4.40303    -6.06025     8.64000  4
Au      5.31010    -3.26857    -8.64000  5
Au      5.31010    -3.26857    -5.76000  6
Au      5.31010    -3.26857    -2.88000  7
Au      5.31010    -3.26857     0.00000  8
Au      5.31010    -3.26857     2.88000  9
Au      5.31010    -3.26857     5.76000 10
Au      5.31010    -3.26857     8.64000  1
Au      6.21718    -0.47689    -8.64000  2
Au      6.21718    -0.47689    -5.76000  3
Au      6.21718    -0.47689    -2.88000  4
Au      6.21718    -0.47689     0.00000  5
Au      6.21718    -0.47689     2.88000  6
Au      6.21718    -0.47689     5.76000  7
Au      6.21718    -0.47689     8.64000  8
Au      7.12425     2.31480    -8.64000  9
Au      7.12425     2.31480    -5.76000 10
Au      7.12425     2.31480    -2.88000  1
Au      7.12425     2.31480     0.00000  2
Au      7.12425     2.31480     2.88000  3
Au      7.12425     2.31480     5.76000  4
Au      7.12425     2.31480     8.64000  5
Au      4.74951     4.04016    -8.64000  6
Au      4.74951     4.04016    -5.76000  7
Au      4.74951     4.04016    -2.88000  8
Au      4.74951     4.04016     0.00000  9
Au      4.74951     4.04016     2.88000 10
Au      4.74951     4.04016     5.76000  1
Au      4.74951     4.04016     8.64000  2
Au      2.37476     5.76552    -8.64000  3
Au      2.37476     5.76552    -5.76000  4
Au      2.37476     5.76552    -2.88000  5
Au      2.37476     5.76552     0.00000  6
Au      2.37476     5.76552     2.88000  7
Au      2.37476     5.76552     5.76000  8
Au      2.37476     5.76552     8.64000  9
Au      0.00002     7.49088    -8.64000 10
Au      0.00002     7.49088    -5.76000  1
Au      0.00002     7.49088    -2.88000  2
Au      0.00002     7.49088     0.00000  3
Au      0.00002     7.49088     2.88000  4
Au      0.00002     7.49088     5.76000  5
Au      0.00002     7.49088     8.64000  6
Au     -2.37474     5.76553    -8.64000  7
Au     -2.37474     5.76553    -5.76000  8
Au     -2.37474     5.76553    -2.88000  9
Au     -2.37474     5.76553     0.00000 10
Au     -2.37474     5.76553     2.88000  1
Au     -2.37474     5.76553     5.76000  2
Au     -2.37474     5.76553     8.64000  3
Au     -4.74949     4.04018    -8.64000  4
Au     -4.74949     4.04018    -5.76000  5
Au     -4.74949     4.04018    -2.88000  6
Au     -4.74949     4.04018     0.00000  7
Au     -4.74949     4.04018     2.88000  8
Au     -4.74949     4.04018     5.76000  9
Au     -4.74949     4.04018     8.64000 10
Au     -7.12424     2.31484    -8.64000  1
Au     -7.12424     2.31484    -5.76000  2
Au     -7.12424     2.31484    -2.88000  3
Au     -7.12424     2.31484     0.00000  4
Au     -7.12424     2.31484     2.88000  5
Au     -7.12424     2.31484     5.76000  6
Au     -7.12424     2.31484     8.64000  7
Au     -6.21718    -0.47685    -8.64000  8
Au     -6.21718    -0.47685    -5.76000  9
Au     -6.21718    -0.47685    -2.88000 10
Au     -6.21718    -0.47685     0.00000  1
Au     -6.21718    -0.47685     2.88000  2
Au     -6.21718    -0.47685     5.76000  3
Au     -6.21718    -0.47685     8.64000  4
Au     -5.31012    -3.26854    -8.64000  5
Au     -5.31012    -3.26854    -5.76000  6
Au     -5.31012    -3.26854    -2.88000  7
Au     -5.31012    -3.26854     0.00000  8
Au     -5.31012    -3.26854     2.88000  9
Au     -5.31012    -3.26854     5.76000 10
Au     -5.31012    -3.26854     8.64000  1
Au     -5.87070    -8.08034    -7.20000  2
Au     -5.87070    -8.08034    -4.32000  3
Au     -5.87070    -8.08034    -1.44000  4
Au     -5.87070    -8.08034     1.44000  5
Au     -5.87070    -8.08034     4.32000  6
Au     -5.87070    -8.08034     7.20000  7
Au     -2.93535    -8.08034    -7.20000  8
Au     -2.93535    -8.08034    -4.32000  9
Au     -2.93535    -8.08034    -1.44000 10
Au     -2.93535    -8.08034     1.44000  1
Au     -2.93535    -8.08034     4.32000  2
Au     -2.93535    -8.08034     7.20000  3
Au      0.00000    -8.08034    -7.20000  4
Au      0.00000    -8.08034    -4.32000  5
Au      0.00000    -8.08034    -1.44000  6
Au      0.00000    -8.08034     1.44000  7
Au      0.00000    -8.08034     4.32000  8
Au      0.00000    -8.08034     7.20000  9
Au      2.93535    -8.08034    -7.20000 10
Au      2.93535    -8.08034    -4.32000  1
Au      2.93535    -8.08034    -1.44000  2
Au      2.93535    -8.08034     1.44000  3
Au      2.93535    -8.08034     4.32000  4
Au      2.93535    -8.08034     7.20000  5
Au      5.87070    -8.08034    -7.20000  6
Au      5.87070    -8.08034    -4.32000  7
Au      5.87070    -8.08034    -1.44000  8
Au      5.87070    -8.08034     1.44000  9
Au      5.87070    -8.08034     4.32000 10
Au      5.87070    -8.08034     7.20000  1
Au      6.77778    -5.28865    -7.20000  2
Au      6.77778    -5.28865    -4.32000  3
Au      6.77778    -5.28865    -1.44000  4
Au      6.77778    -5.28865     1.44000  5
Au      6.77778    -5.28865     4.32000  6
Au      6.77778    -5.28865     7.20000  7
Au      7.68485    -2.49697    -7.20000  8
Au      7.68485    -2.49697    -4.32000  9
Au      7.68485    -2.49697    -1.44000 10
Au      7.68485    -2.49697     1.44000  1
Au      7.68485    -2.49697     4.32000  2
Au      7.68485    -2.49697     7.20000  3
Au      8.59193     0.29471    -7.20000  4
Au      8.59193     0.29471    -4.32000  5
Au      8.59193     0.29471    -1.44000  6
Au      8.59193     0.29471     1.44000  7
Au      8.59193     0.29471     4.32000  8
Au      8.59193     0.29471     7.20000  9
Au      9.49901     3.08640    -7.20000 10
Au      9.49901     3.08640    -4.32000  1
Au      9.49901     3.08640    -1.44000  2
Au      9.49901     3.08640     1.44000  3
Au      9.49901     3.08640     4.32000  4
Au      9.49901     3.08640     7.20000  5
Au      7.12426     4.81176    -7.20000  6
Au      7.12426     4.81176    -4.32000  7
Au      7.12426     4.81176    -1.44000  8
Au      7.12426     4.81176     1.44000  9
Au      7.12426     4.81176     4.32000 10
Au      7.12426     4.81176     7.20000  1
Au      4.74952     6.53712    -7.20000  2
Au      4.74952     6.53712    -4.32000  3
Au      4.74952     6.53712    -1.44000  4
Au      4.74952     6.53712     1.44000  5
Au      4.74952     6.53712     4.32000  6
Au      4.74952     6.53712     7.20000  7
Au      2.37477     8.26248    -7.20000  8
Au      2.37477     8.26248    -4.32000  9
Au      2.37477     8.26248    -1.44000 10
Au      2.37477     8.26248     1.44000  1
Au      2.37477     8.26248     4.32000  2
Au      2.37477     8.26248     7.20000  3
Au      0.00002     9.98784    -7.20000  4
Au      0.00002     9.98784    -4.32000  5
Au      0.00002     9.98784    -1.44000  6
Au      0.00002     9.98784     1.44000  7
Au      0.00002     9.98784     4.32000  8
Au      0.00002     9.98784     7.20000  9
Au     -2.37473     8.26249    -7.20000 10
Au     -2.37473     8.26249    -4.32000  1
Au     -2.37473     8.26249    -1.44000  2
Au     -2.37473     8.26249     1.44000  3
Au     -2.37473     8.26249     4.32000  4
Au     -2.37473     8.26249     7.20000  5
Au     -4.74948     6.53714    -7.20000  6
Au     -4.74948     6.53714    -4.32000  7
Au     -4.74948     6.53714    -1.44000  8
Au     -4.74948     6.53714     1.44000  9
Au     -4.74948     6.53714     4.32000 10
Au     -4.74948     6.53714     7.20000  1
Au     -7.12424     4.81179    -7.20000  2
Au     -7.12424     4.81179    -4.32000  3
Au     -7.12424     4.81179    -1.44000  4
Au     -7.12424     4.81179     1.44000  5
Au     -7.12424     4.81179     4.32000  6
Au     -7.12424     4.81179     7.20000  7
Au     -9.49899     3.08645    -7.20000  8
Au     -9.49899     3.08645    -4.32000  9
Au     -9.49899     3.08645    -1.44000 10
Au     -9.49899     3.08645     1.44000  1
Au     -9.49899     3.08645     4.32000  2
Au     -9.49899     3.08645     7.20000  3
Au     -8.59193     0.29476    -7.20000  4
Au     -8.59193     0.29476    -4.32000  5
Au     -8.59193     0.29476    -1.44000  6
Au     -8.59193     0.29476     1.44000  7
Au     -8.59193     0.29476     4.32000  8
Au     -8.59193     0.29476     7.20000  9
Au     -7.68487    -2.49693    -7.20000 10
Au     -7.68487    -2.49693    -4.32000  1
Au     -7.68487    -2.49693    -1.44000  2
Au     -7.68487    -2.49693     1.44000  3
Au     -7.68487    -2.49693     4.32000  4
Au     -7.68487    -2.49693     7.20000  5
Au     -6.77780    -5.28862    -7.20000  6
Au     -6.77780    -5.28862    -4.32000  7
Au     -6.77780    -5.28862    -1.44000  8
Au     -6.77780    -5.28862     1.44000  9
Au     -6.77780    -5.28862     4.32000 10
Au     -6.77780    -5.28862     7.20000  1
Au     -7.33838   -10.10042    -5.76000  2
Au     -7.33838   -10.10042    -2.88000  3
Au     -7.33838   -10.10042     0.00000  4
Au     -7.33838   -10.10042     2.88000  5
Au     -7.33838   -10.10042     5.76000  6
Au     -4.40303   -10.10042    -5.76000  7
Au     -4.40303   -10.10042    -2.88000  8
Au     -4.40303   -10.10042     0.00000  9
Au     -4.40303   -10.10042     2.88000 10
Au     -4.40303   -10.10042     5.76000  1
Au     -1.46768   -10.10042    -5.76000  2
Au     -1.46768   -10.10042    -2.88000  3
Au     -1.46768   -10.10042     0.00000  4
Au     -1.46768   -10.10042     2.88000  5
Au     -1.46768   -10.10042     5.76000  6
Au      1.46768   -10.10042    -5.76000  7
Au      1.46768   -10.10042    -2.88000  8
Au      1.46768   -10.10042     0.00000  9
Au      1.46768   -10.10042     2.88000 10
Au      1.46768   -10.10042     5.76000  1
Au      4.40303   -10.10042    -5.76000  2
Au      4.40303   -10.10042    -2.88000  3
Au      4.40303   -10.10042     0.00000  4
Au      4.40303   -10.10042     2.88000  5
Au      4.40303   -10.10042     5.76000  6
Au      7.33838   -10.10042    -5.76000  7
Au      7.33838   -10.10042    -2.88000  8
Au      7.33838   -10.10042     0.00000  9
Au      7.33838   -10.10042     2.88000 10
Au      7.33838   -10.10042     5.76000  1
Au      8.24545    -7.30874    -5.76000  2
Au      8.24545    -7.30874    -2.88000  3
Au      8.24545    -7.30874     0.00000  4
Au      8.24545    -7.30874     2.88000  5
Au      8.24545    -7.30874     5.76000  6
Au      9.15253    -4.51705    -5.76000  7
Au      9.15253    -4.51705    -2.88000  8
Au      9.15253    -4.51705     0.00000  9
Au      9.15253    -4.51705     2.88000 10
Au      9.15253    -4.51705     5.76000  1
Au     10.05960    -1.72537    -5.76000  2
Au     10.05960    -1.72537    -2.88000  3
Au     10.05960    -1.72537     0.00000  4
Au     10.05960    -1.72537     2.88000  5
Au     10.05960    -1.72537     5.76000  6
Au     10.96668     1.06631    -5.76000  7
Au     10.96668     1.06631    -2.88000  8
Au     10.96668     1.06631     0.00000  9
Au     10.96668     1.06631     2.88000 10
Au     10.96668     1.06631     5.76000  1
Au     11.87376     3.85800    -5.76000  2
Au     11.87376     3.85800    -2.88000  3
Au     11.87376     3.85800     0.00000  4
Au     11.87376     3.85800     2.88000  5
Au     11.87376     3.85800     5.76000  6
Au      9.49901     5.58336    -5.76000  7
Au      9.49901     5.58336    -2.88000  8
Au      9.49901     5.58336     0.00000  9
Au      9.49901     5.58336     2.88000 10
Au      9.49901     5.58336     5.76000  1
Au      7.12427     7.30872    -5.76000  2
Au      7.12427     7.30872    -2.88000  3
Au      7.12427     7.30872     0.00000  4
Au      7.12427     7.30872     2.88000  5
Au      7.12427     7.30872     5.76000  6
Au      4.74952     9.03408    -5.76000  7
Au      4.74952     9.03408    -2.88000  8
Au      4.74952     9.03408     0.00000  9
Au      4.74952     9.03408     2.88000 10
Au      4.74952     9.03408     5.76000  1
Au      2.37478    10.75944    -5.76000  2
Au      2.37478    10.75944    -2.88000  3
Au      2.37478    10.75944     0.00000  4
Au      2.37478    10.75944     2.88000  5
Au      2.37478    10.75944     5.76000  6
Au      0.00003    12.48480    -5.76000  7
Au      0.00003    12.48480    -2.88000  8
Au      0.00003    12.48480     0.00000  9
Au      0.00003    12.48480     2.88000 10
Au      0.00003    12.48480     5.76000  1
Au     -2.37472    10.75945    -5.76000  2
Au     -2.37472    10.75945    -2.88000  3
Au     -2.37472    10.75945     0.00000  4
Au     -2.37472    10.75945     2.88000  5
Au     -2.37472    10.75945     5.76000  6
Au     -4.74948     9.03410    -5.76000  7
Au     -4.74948     9.03410    -2.88000  8
Au     -4.74948     9.03410     0.00000  9
Au     -4.74948     9.03410     2.88000 10
Au     -4.74948     9.03410     5.76000  1
Au     -7.12423     7.30875    -5.76000  2
Au     -7.12423     7.30875    -2.88000  3
Au     -7.12423     7.30875     0.00000  4
Au     -7.12423     7.30875     2.88000  5
Au     -7.12423     7.30875     5.76000  6
Au     -9.49898     5.58341    -5.76000  7
Au     -9.49898     5.58341    -2.88000  8
Au     -9.49898     5.58341     0.00000  9
Au     -9.49898     5.58341     2.88000 10
Au     -9.49898     5.58341     5.76000  1
Au    -11.87374     3.85806    -5.76000  2
Au    -11.87374     3.85806    -2.88000  3
Au    -11.87374     3.85806     0.00000  4
Au    -11.87374     3.85806     2.88000  5
Au    -11.87374     3.85806     5.76000  6
Au    -10.96668     1.06637    -5.76000  7
Au    -10.96668     1.06637    -2.88000  8
Au    -10.96668     1.06637     0.00000  9
Au    -10.96668     1.06637     2.88000 10
Au    -10.96668     1.06637     5.76000  1
Au    -10.05961    -1.72532    -5.76000  2
Au    -10.05961    -1.72532    -2.88000  3
Au    -10.05961    -1.72532     0.00000  4
Au    -10.05961    -1.72532     2.88000  5
Au    -10.05961    -1.72532     5.76000  6
Au     -9.15255    -4.51701    -5.76000  7
Au     -9.15255    -4.51701    -2.88000  8
Au     -9.15255    -4.51701     0.00000  9
Au     -9.15255    -4.51701     2.88000 10
Au     -9.15255    -4.51701     5.76000  1
Au     -8.24549    -7.30869    -5.76000  2
Au     -8.24549    -7.30869    -2.88000  3
Au     -8.24549    -7.30869     0.00000  4
Au     -8.24549    -7.30869     2.88000  5
Au     -8.24549    -7.30869     5.76000  6
Au     -5.87070   -12.12050    -4.32000  7
Au     -5.87070   -12.12050    -1.44000  8
Au     -5.87070   -12.12050     1.44000  9
Au     -5.87070   -12.12050     4.32000 10
Au     -2.93535   -12.12050    -4.32000  1
Au     -2.93535   -12.12050    -1.44000  2
Au     -2.93535   -12.12050     1.44000  3
Au     -2.93535   -12.12050     4.32000  4
Au      0.00000   -12.12050    -4.32000  5
Au      0.00000   -12.12050    -1.44000  6
Au      0.00000   -12.12050     1.44000  7
Au      0.00000   -12.12050     4.32000  8
Au      2.93535   -12.12050    -4.32000  9
Au      2.93535   -12.12050    -1.44000 10
Au      2.93535   -12.12050     1.44000  1
Au      2.93535   -12.12050     4.32000  2
Au      5.87070   -12.12050    -4.32000  3
Au      5.87070   -12.12050    -1.44000  4
Au      5.87070   -12.12050     1.44000  5
Au      5.87070   -12.12050     4.32000  6
Au      9.71313    -9.32882    -4.32000  7
Au      9.71313    -9.32882    -1.44000  8
Au      9.71313    -9.32882     1.44000  9
Au      9.71313    -9.32882     4.32000 10
Au     10.62020    -6.53714    -4.32000  1
Au     10.62020    -6.53714    -1.44000  2
Au     10.62020    -6.53714     1.44000  3
Au     10.62020    -6.53714     4.32000  4
Au     11.52728    -3.74545    -4.32000  5
Au     11.52728    -3.74545    -1.44000  6
Au     11.52728    -3.74545     1.44000  7
Au     11.52728    -3.74545     4.32000  8
Au     12.43436    -0.95377    -4.32000  9
Au     12.43436    -0.95377    -1.44000 10
Au     12.43436    -0.95377     1.44000  1
Au     12.43436    -0.95377     4.32000  2
Au     13.34143     1.83791    -4.32000  3
Au     13.34143     1.83791    -1.44000  4
Au     13.34143     1.83791     1.44000  5
Au     13.34143     1.83791     4.32000  6
Au     11.87376     6.35496    -4.32000  7
Au     11.87376     6.35496    -1.44000  8
Au     11.87376     6.35496     1.44000  9
Au     11.87376     6.35496     4.32000 10
Au      9.49902     8.08032    -4.32000  1
Au      9.49902     8.08032    -1.44000  2
Au      9.49902     8.08032     1.44000  3
Au      9.49902     8.08032     4.32000  4
Au      7.12427     9.80568    -4.32000  5
Au      7.12427     9.80568    -1.44000  6
Au      7.12427     9.80568     1.44000  7
Au      7.12427     9.80568     4.32000  8
Au      4.74953    11.53104    -4.32000  9
Au      4.74953    11.53104    -1.44000 10
Au      4.74953    11.53104     1.44000  1
Au      4.74953    11.53104     4.32000  2
Au      2.37478    13.25640    -4.32000  3
Au      2.37478    13.25640    -1.44000  4
Au      2.37478    13.25640     1.44000  5
Au      2.37478    13.25640     4.32000  6
Au     -2.37472    13.25641    -4.32000  7
Au     -2.37472    13.25641    -1.44000  8
Au     -2.37472    13.25641     1.44000  9
Au     -2.37472    13.25641     4.32000 10
Au     -4.74947    11.53106    -4.32000  1
Au     -4.74947    11.53106    -1.44000  2
Au     -4.74947    11.53106     1.44000  3
Au     -4.74947    11.53106     4.32000  4
Au     -7.12422     9.80571    -4.32000  5
Au     -7.12422     9.80571    -1.44000  6
Au     -7.12422     9.80571     1.44000  7
Au     -7.12422     9.80571     4.32000  8
Au     -9.49898     8.08037    -4.32000  9
Au     -9.49898     8.08037    -1.44000 10
Au     -9.49898     8.08037     1.44000  1
Au     -9.49898     8.08037     4.32000  2
Au    -11.87373     6.35502    -4.32000  3
Au    -11.87373     6.35502    -1.44000  4
Au    -11.87373     6.35502     1.44000  5
Au    -11.87373     6.35502     4.32000  6
Au    -13.34142     1.83798    -4.32000  7
Au    -13.34142     1.83798    -1.44000  8
Au    -13.34142     1.83798     1.44000  9
Au    -13.34142     1.83798     4.32000 10
Au    -12.43436    -0.95371    -4.32000  1
Au    -12.43436    -0.95371    -1.44000  2
Au    -12.43436    -0.95371     1.44000  3
Au    -12.43436    -0.95371     4.32000  4
Au    -11.52730    -3.74539    -4.32000  5
Au    -11.52730    -3.74539    -1.44000  6
Au    -11.52730    -3.74539     1.44000  7
Au    -11.52730    -3.74539     4.32000  8
Au    -10.62024    -6.53708    -4.32000  9
Au    -10.62024    -6.53708    -1.44000 10
Au    -10.62024    -6.53708     1.44000  1
Au    -10.62024    -6.53708     4.32000  2
Au     -9.71318    -9.32877    -4.32000  3
Au     -9.71318    -9.32877    -1.44000  4
Au     -9.71318    -9.32877     1.44000  5
Au     -9.71318    -9.32877     4.32000  6
Au     -4.40303   -14.14059    -2.88000  7
Au     -4.40303   -14.14059     0.00000  8
Au     -4.40303   -14.14059     2.88000  9
Au     -1.46768   -14.14059    -2.88000 10
Au     -1.46768   -14.14059     0.00000  1
Au     -1.46768   -14.14059     2.88000  2
Au      1.46768   -14.14059    -2.88000  3
Au      1.46768   -14.14059     0.00000  4
Au      1.46768   -14.14059     2.88000  5
Au      4.40303   -14.14059    -2.88000  6
Au      4.40303   -14.14059     0.00000  7
Au      4.40303   -14.14059     2.88000  8
Au     12.08788    -8.55722    -2.88000  9
Au     12.08788    -8.55722     0.00000 10
Au     12.08788    -8.55722     2.88000  1
Au     12.99496    -5.76554    -2.88000  2
Au     12.99496    -5.76554     0.00000  3
Au     12.99496    -5.76554     2.88000  4
Au     13.90203    -2.97385    -2.88000  5
Au     13.90203    -2.97385     0.00000  6
Au     13.90203    -2.97385     2.88000  7
Au     14.80911    -0.18217    -2.88000  8
Au     14.80911    -0.18217     0.00000  9
Au     14.80911    -0.18217     2.88000 10
Au     11.87377     8.85192    -2.88000  1
Au     11.87377     8.85192     0.00000  2
Au     11.87377     8.85192     2.88000  3
Au      9.49903    10.57728    -2.88000  4
Au      9.49903    10.57728     0.00000  5
Au      9.49903    10.57728     2.88000  6
Au      7.12428    12.30264    -2.88000  7
Au      7.12428    12.30264     0.00000  8
Au      7.12428    12.30264     2.88000  9
Au      4.74954    14.02800    -2.88000 10
Au      4.74954    14.02800     0.00000  1
Au      4.74954    14.02800     2.88000  2
Au     -4.74946    14.02802    -2.88000  3
Au     -4.74946    14.02802     0.00000  4
Au     -4.74946    14.02802     2.88000  5
Au     -7.12422    12.30268    -2.88000  6
Au     -7.12422    12.30268     0.00000  7
Au     -7.12422    12.30268     2.88000  8
Au     -9.49897    10.57733    -2.88000  9
Au     -9.49897    10.57733     0.00000 10
Au     -9.49897    10.57733     2.88000  1
Au    -11.87372     8.85198    -2.88000  2
Au    -11.87372     8.85198     0.00000  3
Au    -11.87372     8.85198     2.88000  4
Au    -14.80911    -0.18209    -2.88000  5
Au    -14.80911    -0.18209     0.00000  6
Au    -14.80911    -0.18209     2.88000  7
Au    -13.90205    -2.97378    -2.88000  8
Au    -13.90205    -2.97378     0.00000  9
Au    -13.90205    -2.97378     2.88000 10
Au    -12.99499    -5.76547    -2.88000  1
Au    -12.99499    -5.76547     0.00000  2
Au    -12.99499    -5.76547     2.88000  3
Au    -12.08792    -8.55716    -2.88000  4
Au    -12.08792    -8.55716     0.00000  5
Au    -12.08792    -8.55716     2.88000  6
Au     -2.93535   -16.16067    -1.44000  7
Au     -2.93535   -16.16067     1.44000  8
Au      0.00000   -16.16067    -1.44000  9
Au      0.00000   -16.16067     1.44000 10
Au      2.93535   -16.16067    -1.44000  1
Au      2.93535   -16.16067     1.44000  2
Au     14.46263    -7.78562    -1.44000  3
Au     14.46263    -7.78562     1.44000  4
Au     15.36971    -4.99394    -1.44000  5
Au     15.36971    -4.99394     1.44000  6
Au     16.27678    -2.20226    -1.44000  7
Au     16.27678    -2.20226     1.44000  8
Au     11.87378    11.34888    -1.44000  9
Au     11.87378    11.34888     1.44000 10
Au      9.49903    13.07424    -1.44000  1
Au      9.49903    13.07424     1.44000  2
Au      7.12429    14.79960    -1.44000  3
Au      7.12429    14.79960     1.44000  4
Au     -7.12421    14.79963    -1.44000  5
Au     -7.12421    14.79963     1.44000  6
Au     -9.49897    13.07429    -1.44000  7
Au     -9.49897    13.07429     1.44000  8
Au    -11.87372    11.34894    -1.44000  9
Au    -11.87372    11.34894     1.44000 10
Au    -16.27679    -2.20217    -1.44000  1
Au    -16.27679    -2.20217     1.44000  2
Au    -15.36973    -4.99386    -1.44000  3
Au    -15.36973    -4.99386     1.44000  4
Au    -14.46267    -7.78555    -1.44000  5
Au    -14.46267    -7.78555     1.44000  6
