           7
Au Au
Au      0.00000     0.00000    -1.44000  2
Au      0.00000     0.00000     1.44000  3
Au     -1.46768    -2.02008     0.00000  4
Au      1.46768    -2.02008     0.00000  5
Au      2.37475     0.77160     0.00000  6
Au      0.00001     2.49696     0.00000  7
Au     -2.37475     0.77161     0.00000  8
