          80
Au Au
Au      0.00000     0.00000    -5.76000  2
Au      0.00000     0.00000    -2.88000  3
Au      0.00000     0.00000     0.00000  4
Au      0.00000     0.00000     2.88000  5
Au      0.00000     0.00000     5.76000  6
Au     -1.46768    -2.02008    -4.32000  7
Au     -1.46768    -2.02008    -1.44000  8
Au     -1.46768    -2.02008     1.44000  9
Au     -1.46768    -2.02008     4.32000 10
Au      1.46768    -2.02008    -4.32000  1
Au      1.46768    -2.02008    -1.44000  2
Au      1.46768    -2.02008     1.44000  3
Au      1.46768    -2.02008     4.32000  4
Au      2.37475     0.77160    -4.32000  5
Au      2.37475     0.77160    -1.44000  6
Au      2.37475     0.77160     1.44000  7
Au      2.37475     0.77160     4.32000  8
Au      0.00001     2.49696    -4.32000  9
Au      0.00001     2.49696    -1.44000 10
Au      0.00001     2.49696     1.44000  1
Au      0.00001     2.49696     4.32000  2
Au     -2.37475     0.77161    -4.32000  3
Au     -2.37475     0.77161    -1.44000  4
Au     -2.37475     0.77161     1.44000  5
Au     -2.37475     0.77161     4.32000  6
Au     -2.93535    -4.04017    -2.88000  7
Au     -2.93535    -4.04017     0.00000  8
Au     -2.93535    -4.04017     2.88000  9
Au      0.00000    -4.04017    -2.88000 10
Au      0.00000    -4.04017     0.00000  1
Au      0.00000    -4.04017     2.88000  2
Au      2.93535    -4.04017    -2.88000  3
Au      2.93535    -4.04017     0.00000  4
Au      2.93535    -4.04017     2.88000  5
Au      3.84243    -1.24848    -2.88000  6
Au      3.84243    -1.24848     0.00000  7
Au      3.84243    -1.24848     2.88000  8
Au      4.74950     1.54320    -2.88000  9
Au      4.74950     1.54320     0.00000 10
Au      4.74950     1.54320     2.88000  1
Au      2.37476     3.26856    -2.88000  2
Au      2.37476     3.26856     0.00000  3
Au      2.37476     3.26856     2.88000  4
Au      0.00001     4.99392    -2.88000  5
Au      0.00001     4.99392     0.00000  6
Au      0.00001     4.99392     2.88000  7
Au     -2.37474     3.26857    -2.88000  8
Au     -2.37474     3.26857     0.00000  9
Au     -2.37474     3.26857     2.88000 10
Au     -4.74950     1.54322    -2.88000  1
Au     -4.74950     1.54322     0.00000  2
Au     -4.74950     1.54322     2.88000  3
Au     -3.84243    -1.24846    -2.88000  4
Au     -3.84243    -1.24846     0.00000  5
Au     -3.84243    -1.24846     2.88000  6
Au     -1.46768    -6.06025    -1.44000  7
Au     -1.46768    -6.06025     1.44000  8
Au      1.46768    -6.06025    -1.44000  9
Au      1.46768    -6.06025     1.44000 10
Au      5.31010    -3.26857    -1.44000  1
Au      5.31010    -3.26857     1.44000  2
Au      6.21718    -0.47689    -1.44000  3
Au      6.21718    -0.47689     1.44000  4
Au      4.74951     4.04016    -1.44000  5
Au      4.74951     4.04016     1.44000  6
Au      2.37476     5.76552    -1.44000  7
Au      2.37476     5.76552     1.44000  8
Au     -2.37474     5.76553    -1.44000  9
Au     -2.37474     5.76553     1.44000 10
Au     -4.74949     4.04018    -1.44000  1
Au     -4.74949     4.04018     1.44000  2
Au     -6.21718    -0.47685    -1.44000  3
Au     -6.21718    -0.47685     1.44000  4
Au     -5.31012    -3.26854    -1.44000  5
Au     -5.31012    -3.26854     1.44000  6
Au      0.00000    -8.08034     0.00000  7
Au      7.68485    -2.49697     0.00000  8
Au      4.74952     6.53712     0.00000  9
Au     -4.74948     6.53714     0.00000 10
Au     -7.68487    -2.49693     0.00000  1
