         923
 icosaedre
  Au   0.00000   0.00000   0.00000    12
  Au   2.45412   1.51673   0.00000    12
  Au   2.45412  -1.51673   0.00000    12
  Au  -2.45412   1.51673   0.00000    12
  Au  -2.45412  -1.51673   0.00000    12
  Au   1.51673   0.00000   2.45412    12
  Au   1.51673   0.00000  -2.45412    12
  Au  -1.51673   0.00000   2.45412    12
  Au  -1.51673   0.00000  -2.45412    12
  Au   0.00000   2.45412   1.51673    12
  Au   0.00000   2.45412  -1.51673    12
  Au   0.00000  -2.45412   1.51673    12
  Au   0.00000  -2.45412  -1.51673    12
  Au   4.90825   3.03346   0.00000    12
  Au   4.90825  -3.03346   0.00000    12
  Au  -4.90825   3.03346   0.00000    12
  Au  -4.90825  -3.03346   0.00000    12
  Au   3.03346   0.00000   4.90825    12
  Au   3.03346   0.00000  -4.90825    12
  Au  -3.03346   0.00000   4.90825    12
  Au  -3.03346   0.00000  -4.90825    12
  Au   0.00000   4.90825   3.03346    12
  Au   0.00000   4.90825  -3.03346    12
  Au   0.00000  -4.90825   3.03346    12
  Au   0.00000  -4.90825  -3.03346    12
  Au   4.90825   0.00000   0.00000    12
  Au   3.97086   1.51673   2.45412    12
  Au   3.97086  -1.51673   2.45412    12
  Au   3.97086   1.51673  -2.45412    12
  Au   3.97086  -1.51673  -2.45412    12
  Au   2.45412   3.97086   1.51673    12
  Au   1.51673   2.45412   3.97086    12
  Au   2.45412   3.97086  -1.51673    12
  Au   1.51673   2.45412  -3.97086    12
  Au   0.00000   4.90825   0.00000    12
  Au   2.45412  -3.97086   1.51673    12
  Au   1.51673  -2.45412   3.97086    12
  Au   2.45412  -3.97086  -1.51673    12
  Au   1.51673  -2.45412  -3.97086    12
  Au   0.00000  -4.90825   0.00000    12
  Au  -4.90825   0.00000   0.00000    12
  Au  -3.97086   1.51673   2.45412    12
  Au  -3.97086  -1.51673   2.45412    12
  Au  -3.97086   1.51673  -2.45412    12
  Au  -3.97086  -1.51673  -2.45412    12
  Au  -2.45412   3.97086   1.51673    12
  Au  -1.51673   2.45412   3.97086    12
  Au  -2.45412   3.97086  -1.51673    12
  Au  -1.51673   2.45412  -3.97086    12
  Au  -2.45412  -3.97086   1.51673    12
  Au  -1.51673  -2.45412   3.97086    12
  Au  -2.45412  -3.97086  -1.51673    12
  Au  -1.51673  -2.45412  -3.97086    12
  Au   0.00000   0.00000   4.90825    12
  Au   0.00000   0.00000  -4.90825    12
  Au   7.36237   4.55020   0.00000    12
  Au   7.36237  -4.55020   0.00000    12
  Au  -7.36237   4.55020   0.00000    12
  Au  -7.36237  -4.55020   0.00000    12
  Au   4.55020   0.00000   7.36237    12
  Au   4.55020   0.00000  -7.36237    12
  Au  -4.55020   0.00000   7.36237    12
  Au  -4.55020   0.00000  -7.36237    12
  Au   0.00000   7.36237   4.55020    12
  Au   0.00000   7.36237  -4.55020    12
  Au   0.00000  -7.36237   4.55020    12
  Au   0.00000  -7.36237  -4.55020    12
  Au   7.36237   1.51673   0.00000    12
  Au   7.36237  -1.51673   0.00000    12
  Au   6.42498   3.03346   2.45412    12
  Au   5.48759   1.51673   4.90825    12
  Au   6.42498  -3.03346   2.45412    12
  Au   5.48759  -1.51673   4.90825    12
  Au   6.42498   0.00000   2.45412    12
  Au   6.42498   3.03346  -2.45412    12
  Au   5.48759   1.51673  -4.90825    12
  Au   6.42498  -3.03346  -2.45412    12
  Au   5.48759  -1.51673  -4.90825    12
  Au   6.42498   0.00000  -2.45412    12
  Au   4.90825   5.48759   1.51673    12
  Au   2.45412   6.42498   3.03346    12
  Au   3.03346   2.45412   6.42498    12
  Au   1.51673   4.90825   5.48759    12
  Au   3.97086   3.97086   3.97086    12
  Au   4.90825   5.48759  -1.51673    12
  Au   2.45412   6.42498  -3.03346    12
  Au   3.03346   2.45412  -6.42498    12
  Au   1.51673   4.90825  -5.48759    12
  Au   3.97086   3.97086  -3.97086    12
  Au   0.00000   7.36237   1.51673    12
  Au   0.00000   7.36237  -1.51673    12
  Au   2.45412   6.42498   0.00000    12
  Au   4.90825  -5.48759   1.51673    12
  Au   2.45412  -6.42498   3.03346    12
  Au   3.03346  -2.45412   6.42498    12
  Au   1.51673  -4.90825   5.48759    12
  Au   3.97086  -3.97086   3.97086    12
  Au   4.90825  -5.48759  -1.51673    12
  Au   2.45412  -6.42498  -3.03346    12
  Au   3.03346  -2.45412  -6.42498    12
  Au   1.51673  -4.90825  -5.48759    12
  Au   3.97086  -3.97086  -3.97086    12
  Au   0.00000  -7.36237   1.51673    12
  Au   0.00000  -7.36237  -1.51673    12
  Au   2.45412  -6.42498   0.00000    12
  Au  -7.36237   1.51673   0.00000    12
  Au  -7.36237  -1.51673   0.00000    12
  Au  -6.42498   3.03346   2.45412    12
  Au  -5.48759   1.51673   4.90825    12
  Au  -6.42498  -3.03346   2.45412    12
  Au  -5.48759  -1.51673   4.90825    12
  Au  -6.42498   0.00000   2.45412    12
  Au  -6.42498   3.03346  -2.45412    12
  Au  -5.48759   1.51673  -4.90825    12
  Au  -6.42498  -3.03346  -2.45412    12
  Au  -5.48759  -1.51673  -4.90825    12
  Au  -6.42498   0.00000  -2.45412    12
  Au  -4.90825   5.48759   1.51673    12
  Au  -2.45412   6.42498   3.03346    12
  Au  -3.03346   2.45412   6.42498    12
  Au  -1.51673   4.90825   5.48759    12
  Au  -3.97086   3.97086   3.97086    12
  Au  -4.90825   5.48759  -1.51673    12
  Au  -2.45412   6.42498  -3.03346    12
  Au  -3.03346   2.45412  -6.42498    12
  Au  -1.51673   4.90825  -5.48759    12
  Au  -3.97086   3.97086  -3.97086    12
  Au  -2.45412   6.42498   0.00000    12
  Au  -4.90825  -5.48759   1.51673    12
  Au  -2.45412  -6.42498   3.03346    12
  Au  -3.03346  -2.45412   6.42498    12
  Au  -1.51673  -4.90825   5.48759    12
  Au  -3.97086  -3.97086   3.97086    12
  Au  -4.90825  -5.48759  -1.51673    12
  Au  -2.45412  -6.42498  -3.03346    12
  Au  -3.03346  -2.45412  -6.42498    12
  Au  -1.51673  -4.90825  -5.48759    12
  Au  -3.97086  -3.97086  -3.97086    12
  Au  -2.45412  -6.42498   0.00000    12
  Au   1.51673   0.00000   7.36237    12
  Au  -1.51673   0.00000   7.36237    12
  Au   0.00000   2.45412   6.42498    12
  Au   0.00000  -2.45412   6.42498    12
  Au   1.51673   0.00000  -7.36237    12
  Au  -1.51673   0.00000  -7.36237    12
  Au   0.00000   2.45412  -6.42498    12
  Au   0.00000  -2.45412  -6.42498    12
  Au   9.81650   6.06693   0.00000    12
  Au   9.81650  -6.06693   0.00000    12
  Au  -9.81650   6.06693   0.00000    12
  Au  -9.81650  -6.06693   0.00000    12
  Au   6.06693   0.00000   9.81650    12
  Au   6.06693   0.00000  -9.81650    12
  Au  -6.06693   0.00000   9.81650    12
  Au  -6.06693   0.00000  -9.81650    12
  Au   0.00000   9.81650   6.06693    12
  Au   0.00000   9.81650  -6.06693    12
  Au   0.00000  -9.81650   6.06693    12
  Au   0.00000  -9.81650  -6.06693    12
  Au   9.81650   3.03346   0.00000    12
  Au   9.81650   0.00000   0.00000    12
  Au   9.81650  -3.03346   0.00000    12
  Au   8.87910   4.55020   2.45412    12
  Au   7.94171   3.03346   4.90825    12
  Au   7.00432   1.51673   7.36237    12
  Au   8.87910  -4.55020   2.45412    12
  Au   7.94171  -3.03346   4.90825    12
  Au   7.00432  -1.51673   7.36237    12
  Au   8.87910   1.51673   2.45412    12
  Au   8.87910  -1.51673   2.45412    12
  Au   7.94171  -0.00000   4.90825    12
  Au   8.87910   4.55020  -2.45412    12
  Au   7.94171   3.03346  -4.90825    12
  Au   7.00432   1.51673  -7.36237    12
  Au   8.87910  -4.55020  -2.45412    12
  Au   7.94171  -3.03346  -4.90825    12
  Au   7.00432  -1.51673  -7.36237    12
  Au   8.87910   1.51673  -2.45412    12
  Au   8.87910  -1.51673  -2.45412    12
  Au   7.94171  -0.00000  -4.90825    12
  Au   7.36237   7.00432   1.51673    12
  Au   4.90825   7.94171   3.03346    12
  Au   2.45412   8.87910   4.55020    12
  Au   4.55020   2.45412   8.87910    12
  Au   3.03346   4.90825   7.94171    12
  Au   1.51673   7.36237   7.00432    12
  Au   6.42498   5.48759   3.97086    12
  Au   5.48759   3.97086   6.42498    12
  Au   3.97086   6.42498   5.48759    12
  Au   7.36237   7.00432  -1.51673    12
  Au   4.90825   7.94171  -3.03346    12
  Au   2.45412   8.87910  -4.55020    12
  Au   4.55020   2.45412  -8.87910    12
  Au   3.03346   4.90825  -7.94171    12
  Au   1.51673   7.36237  -7.00432    12
  Au   6.42498   5.48759  -3.97086    12
  Au   5.48759   3.97086  -6.42498    12
  Au   3.97086   6.42498  -5.48759    12
  Au   0.00000   9.81650   3.03346    12
  Au   0.00000   9.81650   0.00000    12
  Au   0.00000   9.81650  -3.03346    12
  Au   4.90825   7.94171   0.00000    12
  Au   2.45412   8.87910   1.51673    12
  Au   2.45412   8.87910  -1.51673    12
  Au   7.36237  -7.00432   1.51673    12
  Au   4.90825  -7.94171   3.03346    12
  Au   2.45412  -8.87910   4.55020    12
  Au   4.55020  -2.45412   8.87910    12
  Au   3.03346  -4.90825   7.94171    12
  Au   1.51673  -7.36237   7.00432    12
  Au   6.42498  -5.48759   3.97086    12
  Au   5.48759  -3.97086   6.42498    12
  Au   3.97086  -6.42498   5.48759    12
  Au   7.36237  -7.00432  -1.51673    12
  Au   4.90825  -7.94171  -3.03346    12
  Au   2.45412  -8.87910  -4.55020    12
  Au   4.55020  -2.45412  -8.87910    12
  Au   3.03346  -4.90825  -7.94171    12
  Au   1.51673  -7.36237  -7.00432    12
  Au   6.42498  -5.48759  -3.97086    12
  Au   5.48759  -3.97086  -6.42498    12
  Au   3.97086  -6.42498  -5.48759    12
  Au   0.00000  -9.81650   3.03346    12
  Au   0.00000  -9.81650   0.00000    12
  Au   0.00000  -9.81650  -3.03346    12
  Au   4.90825  -7.94171   0.00000    12
  Au   2.45412  -8.87910   1.51673    12
  Au   2.45412  -8.87910  -1.51673    12
  Au  -9.81650   3.03346   0.00000    12
  Au  -9.81650   0.00000   0.00000    12
  Au  -9.81650  -3.03346   0.00000    12
  Au  -8.87910   4.55020   2.45412    12
  Au  -7.94171   3.03346   4.90825    12
  Au  -7.00432   1.51673   7.36237    12
  Au  -8.87910  -4.55020   2.45412    12
  Au  -7.94171  -3.03346   4.90825    12
  Au  -7.00432  -1.51673   7.36237    12
  Au  -8.87910   1.51673   2.45412    12
  Au  -8.87910  -1.51673   2.45412    12
  Au  -7.94171  -0.00000   4.90825    12
  Au  -8.87910   4.55020  -2.45412    12
  Au  -7.94171   3.03346  -4.90825    12
  Au  -7.00432   1.51673  -7.36237    12
  Au  -8.87910  -4.55020  -2.45412    12
  Au  -7.94171  -3.03346  -4.90825    12
  Au  -7.00432  -1.51673  -7.36237    12
  Au  -8.87910   1.51673  -2.45412    12
  Au  -8.87910  -1.51673  -2.45412    12
  Au  -7.94171  -0.00000  -4.90825    12
  Au  -7.36237   7.00432   1.51673    12
  Au  -4.90825   7.94171   3.03346    12
  Au  -2.45412   8.87910   4.55020    12
  Au  -4.55020   2.45412   8.87910    12
  Au  -3.03346   4.90825   7.94171    12
  Au  -1.51673   7.36237   7.00432    12
  Au  -6.42498   5.48759   3.97086    12
  Au  -5.48759   3.97086   6.42498    12
  Au  -3.97086   6.42498   5.48759    12
  Au  -7.36237   7.00432  -1.51673    12
  Au  -4.90825   7.94171  -3.03346    12
  Au  -2.45412   8.87910  -4.55020    12
  Au  -4.55020   2.45412  -8.87910    12
  Au  -3.03346   4.90825  -7.94171    12
  Au  -1.51673   7.36237  -7.00432    12
  Au  -6.42498   5.48759  -3.97086    12
  Au  -5.48759   3.97086  -6.42498    12
  Au  -3.97086   6.42498  -5.48759    12
  Au  -4.90825   7.94171   0.00000    12
  Au  -2.45412   8.87910   1.51673    12
  Au  -2.45412   8.87910  -1.51673    12
  Au  -7.36237  -7.00432   1.51673    12
  Au  -4.90825  -7.94171   3.03346    12
  Au  -2.45412  -8.87910   4.55020    12
  Au  -4.55020  -2.45412   8.87910    12
  Au  -3.03346  -4.90825   7.94171    12
  Au  -1.51673  -7.36237   7.00432    12
  Au  -6.42498  -5.48759   3.97086    12
  Au  -5.48759  -3.97086   6.42498    12
  Au  -3.97086  -6.42498   5.48759    12
  Au  -7.36237  -7.00432  -1.51673    12
  Au  -4.90825  -7.94171  -3.03346    12
  Au  -2.45412  -8.87910  -4.55020    12
  Au  -4.55020  -2.45412  -8.87910    12
  Au  -3.03346  -4.90825  -7.94171    12
  Au  -1.51673  -7.36237  -7.00432    12
  Au  -6.42498  -5.48759  -3.97086    12
  Au  -5.48759  -3.97086  -6.42498    12
  Au  -3.97086  -6.42498  -5.48759    12
  Au  -4.90825  -7.94171   0.00000    12
  Au  -2.45412  -8.87910   1.51673    12
  Au  -2.45412  -8.87910  -1.51673    12
  Au   3.03346   0.00000   9.81650    12
  Au   0.00000   0.00000   9.81650    12
  Au  -3.03346   0.00000   9.81650    12
  Au   1.51673   2.45412   8.87910    12
  Au  -1.51673   2.45412   8.87910    12
  Au  -0.00000   4.90825   7.94171    12
  Au   1.51673  -2.45412   8.87910    12
  Au  -1.51673  -2.45412   8.87910    12
  Au  -0.00000  -4.90825   7.94171    12
  Au   3.03346   0.00000  -9.81650    12
  Au   0.00000   0.00000  -9.81650    12
  Au  -3.03346   0.00000  -9.81650    12
  Au   1.51673   2.45412  -8.87910    12
  Au  -1.51673   2.45412  -8.87910    12
  Au  -0.00000   4.90825  -7.94171    12
  Au   1.51673  -2.45412  -8.87910    12
  Au  -1.51673  -2.45412  -8.87910    12
  Au  -0.00000  -4.90825  -7.94171    12
  Au  12.27062   7.58366   0.00000    12
  Au  12.27062  -7.58366   0.00000    12
  Au -12.27062   7.58366   0.00000    12
  Au -12.27062  -7.58366   0.00000    12
  Au   7.58366   0.00000  12.27062    12
  Au   7.58366   0.00000 -12.27062    12
  Au  -7.58366   0.00000  12.27062    12
  Au  -7.58366   0.00000 -12.27062    12
  Au   0.00000  12.27062   7.58366    12
  Au   0.00000  12.27062  -7.58366    12
  Au   0.00000 -12.27062   7.58366    12
  Au   0.00000 -12.27062  -7.58366    12
  Au  12.27062   4.55020   0.00000    12
  Au  12.27062   1.51673   0.00000    12
  Au  12.27062  -1.51673   0.00000    12
  Au  12.27062  -4.55020   0.00000    12
  Au  11.33323   6.06693   2.45412    12
  Au  10.39584   4.55020   4.90825    12
  Au   9.45844   3.03346   7.36237    12
  Au   8.52105   1.51673   9.81650    12
  Au  11.33323  -6.06693   2.45412    12
  Au  10.39584  -4.55020   4.90825    12
  Au   9.45844  -3.03346   7.36237    12
  Au   8.52105  -1.51673   9.81650    12
  Au  11.33323   3.03346   2.45412    12
  Au  11.33323   0.00000   2.45412    12
  Au  10.39584   1.51673   4.90825    12
  Au  11.33323  -3.03346   2.45412    12
  Au  10.39584  -1.51673   4.90825    12
  Au   9.45844   0.00000   7.36237    12
  Au  11.33323   6.06693  -2.45412    12
  Au  10.39584   4.55020  -4.90825    12
  Au   9.45844   3.03346  -7.36237    12
  Au   8.52105   1.51673  -9.81650    12
  Au  11.33323  -6.06693  -2.45412    12
  Au  10.39584  -4.55020  -4.90825    12
  Au   9.45844  -3.03346  -7.36237    12
  Au   8.52105  -1.51673  -9.81650    12
  Au  11.33323   3.03346  -2.45412    12
  Au  11.33323   0.00000  -2.45412    12
  Au  10.39584   1.51673  -4.90825    12
  Au  11.33323  -3.03346  -2.45412    12
  Au  10.39584  -1.51673  -4.90825    12
  Au   9.45844   0.00000  -7.36237    12
  Au   9.81650   8.52105   1.51673    12
  Au   7.36237   9.45844   3.03346    12
  Au   4.90825  10.39584   4.55020    12
  Au   2.45412  11.33323   6.06693    12
  Au   6.06693   2.45412  11.33323    12
  Au   4.55020   4.90825  10.39584    12
  Au   3.03346   7.36237   9.45844    12
  Au   1.51673   9.81650   8.52105    12
  Au   8.87910   7.00432   3.97086    12
  Au   7.94171   5.48759   6.42498    12
  Au   6.42498   7.94171   5.48759    12
  Au   7.00432   3.97086   8.87910    12
  Au   5.48759   6.42498   7.94171    12
  Au   3.97086   8.87910   7.00432    12
  Au   9.81650   8.52105  -1.51673    12
  Au   7.36237   9.45844  -3.03346    12
  Au   4.90825  10.39584  -4.55020    12
  Au   2.45412  11.33323  -6.06693    12
  Au   6.06693   2.45412 -11.33323    12
  Au   4.55020   4.90825 -10.39584    12
  Au   3.03346   7.36237  -9.45844    12
  Au   1.51673   9.81650  -8.52105    12
  Au   8.87910   7.00432  -3.97086    12
  Au   7.94171   5.48759  -6.42498    12
  Au   6.42498   7.94171  -5.48759    12
  Au   7.00432   3.97086  -8.87910    12
  Au   5.48759   6.42498  -7.94171    12
  Au   3.97086   8.87910  -7.00432    12
  Au   0.00000  12.27062   4.55020    12
  Au   0.00000  12.27062   1.51673    12
  Au   0.00000  12.27062  -1.51673    12
  Au   0.00000  12.27062  -4.55020    12
  Au   7.36237   9.45844   0.00000    12
  Au   4.90825  10.39584   1.51673    12
  Au   4.90825  10.39584  -1.51673    12
  Au   2.45412  11.33323   3.03346    12
  Au   2.45412  11.33323   0.00000    12
  Au   2.45412  11.33323  -3.03346    12
  Au   9.81650  -8.52105   1.51673    12
  Au   7.36237  -9.45844   3.03346    12
  Au   4.90825 -10.39584   4.55020    12
  Au   2.45412 -11.33323   6.06693    12
  Au   6.06693  -2.45412  11.33323    12
  Au   4.55020  -4.90825  10.39584    12
  Au   3.03346  -7.36237   9.45844    12
  Au   1.51673  -9.81650   8.52105    12
  Au   8.87910  -7.00432   3.97086    12
  Au   7.94171  -5.48759   6.42498    12
  Au   6.42498  -7.94171   5.48759    12
  Au   7.00432  -3.97086   8.87910    12
  Au   5.48759  -6.42498   7.94171    12
  Au   3.97086  -8.87910   7.00432    12
  Au   9.81650  -8.52105  -1.51673    12
  Au   7.36237  -9.45844  -3.03346    12
  Au   4.90825 -10.39584  -4.55020    12
  Au   2.45412 -11.33323  -6.06693    12
  Au   6.06693  -2.45412 -11.33323    12
  Au   4.55020  -4.90825 -10.39584    12
  Au   3.03346  -7.36237  -9.45844    12
  Au   1.51673  -9.81650  -8.52105    12
  Au   8.87910  -7.00432  -3.97086    12
  Au   7.94171  -5.48759  -6.42498    12
  Au   6.42498  -7.94171  -5.48759    12
  Au   7.00432  -3.97086  -8.87910    12
  Au   5.48759  -6.42498  -7.94171    12
  Au   3.97086  -8.87910  -7.00432    12
  Au   0.00000 -12.27062   4.55020    12
  Au   0.00000 -12.27062   1.51673    12
  Au   0.00000 -12.27062  -1.51673    12
  Au   0.00000 -12.27062  -4.55020    12
  Au   7.36237  -9.45844   0.00000    12
  Au   4.90825 -10.39584   1.51673    12
  Au   4.90825 -10.39584  -1.51673    12
  Au   2.45412 -11.33323   3.03346    12
  Au   2.45412 -11.33323   0.00000    12
  Au   2.45412 -11.33323  -3.03346    12
  Au -12.27062   4.55020   0.00000    12
  Au -12.27062   1.51673   0.00000    12
  Au -12.27062  -1.51673   0.00000    12
  Au -12.27062  -4.55020   0.00000    12
  Au -11.33323   6.06693   2.45412    12
  Au -10.39584   4.55020   4.90825    12
  Au  -9.45844   3.03346   7.36237    12
  Au  -8.52105   1.51673   9.81650    12
  Au -11.33323  -6.06693   2.45412    12
  Au -10.39584  -4.55020   4.90825    12
  Au  -9.45844  -3.03346   7.36237    12
  Au  -8.52105  -1.51673   9.81650    12
  Au -11.33323   3.03346   2.45412    12
  Au -11.33323   0.00000   2.45412    12
  Au -10.39584   1.51673   4.90825    12
  Au -11.33323  -3.03346   2.45412    12
  Au -10.39584  -1.51673   4.90825    12
  Au  -9.45844   0.00000   7.36237    12
  Au -11.33323   6.06693  -2.45412    12
  Au -10.39584   4.55020  -4.90825    12
  Au  -9.45844   3.03346  -7.36237    12
  Au  -8.52105   1.51673  -9.81650    12
  Au -11.33323  -6.06693  -2.45412    12
  Au -10.39584  -4.55020  -4.90825    12
  Au  -9.45844  -3.03346  -7.36237    12
  Au  -8.52105  -1.51673  -9.81650    12
  Au -11.33323   3.03346  -2.45412    12
  Au -11.33323   0.00000  -2.45412    12
  Au -10.39584   1.51673  -4.90825    12
  Au -11.33323  -3.03346  -2.45412    12
  Au -10.39584  -1.51673  -4.90825    12
  Au  -9.45844   0.00000  -7.36237    12
  Au  -9.81650   8.52105   1.51673    12
  Au  -7.36237   9.45844   3.03346    12
  Au  -4.90825  10.39584   4.55020    12
  Au  -2.45412  11.33323   6.06693    12
  Au  -6.06693   2.45412  11.33323    12
  Au  -4.55020   4.90825  10.39584    12
  Au  -3.03346   7.36237   9.45844    12
  Au  -1.51673   9.81650   8.52105    12
  Au  -8.87910   7.00432   3.97086    12
  Au  -7.94171   5.48759   6.42498    12
  Au  -6.42498   7.94171   5.48759    12
  Au  -7.00432   3.97086   8.87910    12
  Au  -5.48759   6.42498   7.94171    12
  Au  -3.97086   8.87910   7.00432    12
  Au  -9.81650   8.52105  -1.51673    12
  Au  -7.36237   9.45844  -3.03346    12
  Au  -4.90825  10.39584  -4.55020    12
  Au  -2.45412  11.33323  -6.06693    12
  Au  -6.06693   2.45412 -11.33323    12
  Au  -4.55020   4.90825 -10.39584    12
  Au  -3.03346   7.36237  -9.45844    12
  Au  -1.51673   9.81650  -8.52105    12
  Au  -8.87910   7.00432  -3.97086    12
  Au  -7.94171   5.48759  -6.42498    12
  Au  -6.42498   7.94171  -5.48759    12
  Au  -7.00432   3.97086  -8.87910    12
  Au  -5.48759   6.42498  -7.94171    12
  Au  -3.97086   8.87910  -7.00432    12
  Au  -7.36237   9.45844   0.00000    12
  Au  -4.90825  10.39584   1.51673    12
  Au  -4.90825  10.39584  -1.51673    12
  Au  -2.45412  11.33323   3.03346    12
  Au  -2.45412  11.33323   0.00000    12
  Au  -2.45412  11.33323  -3.03346    12
  Au  -9.81650  -8.52105   1.51673    12
  Au  -7.36237  -9.45844   3.03346    12
  Au  -4.90825 -10.39584   4.55020    12
  Au  -2.45412 -11.33323   6.06693    12
  Au  -6.06693  -2.45412  11.33323    12
  Au  -4.55020  -4.90825  10.39584    12
  Au  -3.03346  -7.36237   9.45844    12
  Au  -1.51673  -9.81650   8.52105    12
  Au  -8.87910  -7.00432   3.97086    12
  Au  -7.94171  -5.48759   6.42498    12
  Au  -6.42498  -7.94171   5.48759    12
  Au  -7.00432  -3.97086   8.87910    12
  Au  -5.48759  -6.42498   7.94171    12
  Au  -3.97086  -8.87910   7.00432    12
  Au  -9.81650  -8.52105  -1.51673    12
  Au  -7.36237  -9.45844  -3.03346    12
  Au  -4.90825 -10.39584  -4.55020    12
  Au  -2.45412 -11.33323  -6.06693    12
  Au  -6.06693  -2.45412 -11.33323    12
  Au  -4.55020  -4.90825 -10.39584    12
  Au  -3.03346  -7.36237  -9.45844    12
  Au  -1.51673  -9.81650  -8.52105    12
  Au  -8.87910  -7.00432  -3.97086    12
  Au  -7.94171  -5.48759  -6.42498    12
  Au  -6.42498  -7.94171  -5.48759    12
  Au  -7.00432  -3.97086  -8.87910    12
  Au  -5.48759  -6.42498  -7.94171    12
  Au  -3.97086  -8.87910  -7.00432    12
  Au  -7.36237  -9.45844   0.00000    12
  Au  -4.90825 -10.39584   1.51673    12
  Au  -4.90825 -10.39584  -1.51673    12
  Au  -2.45412 -11.33323   3.03346    12
  Au  -2.45412 -11.33323   0.00000    12
  Au  -2.45412 -11.33323  -3.03346    12
  Au   4.55020   0.00000  12.27062    12
  Au   1.51673   0.00000  12.27062    12
  Au  -1.51673   0.00000  12.27062    12
  Au  -4.55020   0.00000  12.27062    12
  Au   3.03346   2.45412  11.33323    12
  Au   0.00000   2.45412  11.33323    12
  Au   1.51673   4.90825  10.39584    12
  Au  -3.03346   2.45412  11.33323    12
  Au  -1.51673   4.90825  10.39584    12
  Au   0.00000   7.36237   9.45844    12
  Au   3.03346  -2.45412  11.33323    12
  Au   0.00000  -2.45412  11.33323    12
  Au   1.51673  -4.90825  10.39584    12
  Au  -3.03346  -2.45412  11.33323    12
  Au  -1.51673  -4.90825  10.39584    12
  Au   0.00000  -7.36237   9.45844    12
  Au   4.55020   0.00000 -12.27062    12
  Au   1.51673   0.00000 -12.27062    12
  Au  -1.51673   0.00000 -12.27062    12
  Au  -4.55020   0.00000 -12.27062    12
  Au   3.03346   2.45412 -11.33323    12
  Au   0.00000   2.45412 -11.33323    12
  Au   1.51673   4.90825 -10.39584    12
  Au  -3.03346   2.45412 -11.33323    12
  Au  -1.51673   4.90825 -10.39584    12
  Au   0.00000   7.36237  -9.45844    12
  Au   3.03346  -2.45412 -11.33323    12
  Au   0.00000  -2.45412 -11.33323    12
  Au   1.51673  -4.90825 -10.39584    12
  Au  -3.03346  -2.45412 -11.33323    12
  Au  -1.51673  -4.90825 -10.39584    12
  Au   0.00000  -7.36237  -9.45844    12
  Au  14.72474   9.10039   0.00000     6
  Au  14.72474  -9.10039   0.00000     6
  Au -14.72474   9.10039   0.00000     6
  Au -14.72474  -9.10039   0.00000     6
  Au   9.10039   0.00000  14.72474     6
  Au   9.10039   0.00000 -14.72474     6
  Au  -9.10039   0.00000  14.72474     6
  Au  -9.10039   0.00000 -14.72474     6
  Au   0.00000  14.72474   9.10039     6
  Au   0.00000  14.72474  -9.10039     6
  Au   0.00000 -14.72474   9.10039     6
  Au   0.00000 -14.72474  -9.10039     6
  Au  14.72474   6.06693   0.00000     8
  Au  14.72474   3.03346   0.00000     8
  Au  14.72474   0.00000   0.00000     8
  Au  14.72474  -3.03346   0.00000     8
  Au  14.72474  -6.06693   0.00000     8
  Au  13.78735   7.58366   2.45412     8
  Au  12.84996   6.06693   4.90825     8
  Au  11.91257   4.55020   7.36237     8
  Au  10.97518   3.03346   9.81650     8
  Au  10.03778   1.51673  12.27062     8
  Au  13.78735  -7.58366   2.45412     8
  Au  12.84996  -6.06693   4.90825     8
  Au  11.91257  -4.55020   7.36237     8
  Au  10.97518  -3.03346   9.81650     8
  Au  10.03778  -1.51673  12.27062     8
  Au  13.78735   4.55020   2.45412     9
  Au  13.78735   1.51673   2.45412     9
  Au  12.84996   3.03346   4.90825     9
  Au  13.78735  -1.51673   2.45412     9
  Au  12.84996   0.00000   4.90825     9
  Au  11.91257   1.51673   7.36237     9
  Au  13.78735  -4.55020   2.45412     9
  Au  12.84996  -3.03346   4.90825     9
  Au  11.91257  -1.51673   7.36237     9
  Au  10.97518   0.00000   9.81650     9
  Au  13.78735   7.58366  -2.45412     8
  Au  12.84996   6.06693  -4.90825     8
  Au  11.91257   4.55020  -7.36237     8
  Au  10.97518   3.03346  -9.81650     8
  Au  10.03778   1.51673 -12.27062     8
  Au  13.78735  -7.58366  -2.45412     8
  Au  12.84996  -6.06693  -4.90825     8
  Au  11.91257  -4.55020  -7.36237     8
  Au  10.97518  -3.03346  -9.81650     8
  Au  10.03778  -1.51673 -12.27062     8
  Au  13.78735   4.55020  -2.45412     9
  Au  13.78735   1.51673  -2.45412     9
  Au  12.84996   3.03346  -4.90825     9
  Au  13.78735  -1.51673  -2.45412     9
  Au  12.84996   0.00000  -4.90825     9
  Au  11.91257   1.51673  -7.36237     9
  Au  13.78735  -4.55020  -2.45412     9
  Au  12.84996  -3.03346  -4.90825     9
  Au  11.91257  -1.51673  -7.36237     9
  Au  10.97518   0.00000  -9.81650     9
  Au  12.27062  10.03778   1.51673     8
  Au   9.81650  10.97518   3.03346     8
  Au   7.36237  11.91257   4.55020     8
  Au   4.90825  12.84996   6.06693     8
  Au   2.45412  13.78735   7.58366     8
  Au   7.58366   2.45412  13.78735     8
  Au   6.06693   4.90825  12.84996     8
  Au   4.55020   7.36237  11.91257     8
  Au   3.03346   9.81650  10.97518     8
  Au   1.51673  12.27062  10.03778     8
  Au  11.33323   8.52105   3.97086     9
  Au  10.39584   7.00432   6.42498     9
  Au   8.87910   9.45844   5.48759     9
  Au   9.45844   5.48759   8.87910     9
  Au   7.94171   7.94171   7.94171     9
  Au   6.42498  10.39584   7.00432     9
  Au   8.52105   3.97086  11.33323     9
  Au   7.00432   6.42498  10.39584     9
  Au   5.48759   8.87910   9.45844     9
  Au   3.97086  11.33323   8.52105     9
  Au  12.27062  10.03778  -1.51673     8
  Au   9.81650  10.97518  -3.03346     8
  Au   7.36237  11.91257  -4.55020     8
  Au   4.90825  12.84996  -6.06693     8
  Au   2.45412  13.78735  -7.58366     8
  Au   7.58366   2.45412 -13.78735     8
  Au   6.06693   4.90825 -12.84996     8
  Au   4.55020   7.36237 -11.91257     8
  Au   3.03346   9.81650 -10.97518     8
  Au   1.51673  12.27062 -10.03778     8
  Au  11.33323   8.52105  -3.97086     9
  Au  10.39584   7.00432  -6.42498     9
  Au   8.87910   9.45844  -5.48759     9
  Au   9.45844   5.48759  -8.87910     9
  Au   7.94171   7.94171  -7.94171     9
  Au   6.42498  10.39584  -7.00432     9
  Au   8.52105   3.97086 -11.33323     9
  Au   7.00432   6.42498 -10.39584     9
  Au   5.48759   8.87910  -9.45844     9
  Au   3.97086  11.33323  -8.52105     9
  Au   0.00000  14.72474   6.06693     8
  Au   0.00000  14.72474   3.03346     8
  Au   0.00000  14.72474   0.00000     8
  Au   0.00000  14.72474  -3.03346     8
  Au   0.00000  14.72474  -6.06693     8
  Au   9.81650  10.97518   0.00000     9
  Au   7.36237  11.91257   1.51673     9
  Au   7.36237  11.91257  -1.51673     9
  Au   4.90825  12.84996   3.03346     9
  Au   4.90825  12.84996   0.00000     9
  Au   4.90825  12.84996  -3.03346     9
  Au   2.45412  13.78735   4.55020     9
  Au   2.45412  13.78735   1.51673     9
  Au   2.45412  13.78735  -1.51673     9
  Au   2.45412  13.78735  -4.55020     9
  Au  12.27062 -10.03778   1.51673     8
  Au   9.81650 -10.97518   3.03346     8
  Au   7.36237 -11.91257   4.55020     8
  Au   4.90825 -12.84996   6.06693     8
  Au   2.45412 -13.78735   7.58366     8
  Au   7.58366  -2.45412  13.78735     8
  Au   6.06693  -4.90825  12.84996     8
  Au   4.55020  -7.36237  11.91257     8
  Au   3.03346  -9.81650  10.97518     8
  Au   1.51673 -12.27062  10.03778     8
  Au  11.33323  -8.52105   3.97086     9
  Au  10.39584  -7.00432   6.42498     9
  Au   8.87910  -9.45844   5.48759     9
  Au   9.45844  -5.48759   8.87910     9
  Au   7.94171  -7.94171   7.94171     9
  Au   6.42498 -10.39584   7.00432     9
  Au   8.52105  -3.97086  11.33323     9
  Au   7.00432  -6.42498  10.39584     9
  Au   5.48759  -8.87910   9.45844     9
  Au   3.97086 -11.33323   8.52105     9
  Au  12.27062 -10.03778  -1.51673     8
  Au   9.81650 -10.97518  -3.03346     8
  Au   7.36237 -11.91257  -4.55020     8
  Au   4.90825 -12.84996  -6.06693     8
  Au   2.45412 -13.78735  -7.58366     8
  Au   7.58366  -2.45412 -13.78735     8
  Au   6.06693  -4.90825 -12.84996     8
  Au   4.55020  -7.36237 -11.91257     8
  Au   3.03346  -9.81650 -10.97518     8
  Au   1.51673 -12.27062 -10.03778     8
  Au  11.33323  -8.52105  -3.97086     9
  Au  10.39584  -7.00432  -6.42498     9
  Au   8.87910  -9.45844  -5.48759     9
  Au   9.45844  -5.48759  -8.87910     9
  Au   7.94171  -7.94171  -7.94171     9
  Au   6.42498 -10.39584  -7.00432     9
  Au   8.52105  -3.97086 -11.33323     9
  Au   7.00432  -6.42498 -10.39584     9
  Au   5.48759  -8.87910  -9.45844     9
  Au   3.97086 -11.33323  -8.52105     9
  Au   0.00000 -14.72474   6.06693     8
  Au   0.00000 -14.72474   3.03346     8
  Au   0.00000 -14.72474   0.00000     8
  Au   0.00000 -14.72474  -3.03346     8
  Au   0.00000 -14.72474  -6.06693     8
  Au   9.81650 -10.97518   0.00000     9
  Au   7.36237 -11.91257   1.51673     9
  Au   7.36237 -11.91257  -1.51673     9
  Au   4.90825 -12.84996   3.03346     9
  Au   4.90825 -12.84996   0.00000     9
  Au   4.90825 -12.84996  -3.03346     9
  Au   2.45412 -13.78735   4.55020     9
  Au   2.45412 -13.78735   1.51673     9
  Au   2.45412 -13.78735  -1.51673     9
  Au   2.45412 -13.78735  -4.55020     9
  Au -14.72474   6.06693   0.00000     8
  Au -14.72474   3.03346   0.00000     8
  Au -14.72474   0.00000   0.00000     8
  Au -14.72474  -3.03346   0.00000     8
  Au -14.72474  -6.06693   0.00000     8
  Au -13.78735   7.58366   2.45412     8
  Au -12.84996   6.06693   4.90825     8
  Au -11.91257   4.55020   7.36237     8
  Au -10.97518   3.03346   9.81650     8
  Au -10.03778   1.51673  12.27062     8
  Au -13.78735  -7.58366   2.45412     8
  Au -12.84996  -6.06693   4.90825     8
  Au -11.91257  -4.55020   7.36237     8
  Au -10.97518  -3.03346   9.81650     8
  Au -10.03778  -1.51673  12.27062     8
  Au -13.78735   4.55020   2.45412     9
  Au -13.78735   1.51673   2.45412     9
  Au -12.84996   3.03346   4.90825     9
  Au -13.78735  -1.51673   2.45412     9
  Au -12.84996   0.00000   4.90825     9
  Au -11.91257   1.51673   7.36237     9
  Au -13.78735  -4.55020   2.45412     9
  Au -12.84996  -3.03346   4.90825     9
  Au -11.91257  -1.51673   7.36237     9
  Au -10.97518   0.00000   9.81650     9
  Au -13.78735   7.58366  -2.45412     8
  Au -12.84996   6.06693  -4.90825     8
  Au -11.91257   4.55020  -7.36237     8
  Au -10.97518   3.03346  -9.81650     8
  Au -10.03778   1.51673 -12.27062     8
  Au -13.78735  -7.58366  -2.45412     8
  Au -12.84996  -6.06693  -4.90825     8
  Au -11.91257  -4.55020  -7.36237     8
  Au -10.97518  -3.03346  -9.81650     8
  Au -10.03778  -1.51673 -12.27062     8
  Au -13.78735   4.55020  -2.45412     9
  Au -13.78735   1.51673  -2.45412     9
  Au -12.84996   3.03346  -4.90825     9
  Au -13.78735  -1.51673  -2.45412     9
  Au -12.84996   0.00000  -4.90825     9
  Au -11.91257   1.51673  -7.36237     9
  Au -13.78735  -4.55020  -2.45412     9
  Au -12.84996  -3.03346  -4.90825     9
  Au -11.91257  -1.51673  -7.36237     9
  Au -10.97518   0.00000  -9.81650     9
  Au -12.27062  10.03778   1.51673     8
  Au  -9.81650  10.97518   3.03346     8
  Au  -7.36237  11.91257   4.55020     8
  Au  -4.90825  12.84996   6.06693     8
  Au  -2.45412  13.78735   7.58366     8
  Au  -7.58366   2.45412  13.78735     8
  Au  -6.06693   4.90825  12.84996     8
  Au  -4.55020   7.36237  11.91257     8
  Au  -3.03346   9.81650  10.97518     8
  Au  -1.51673  12.27062  10.03778     8
  Au -11.33323   8.52105   3.97086     9
  Au -10.39584   7.00432   6.42498     9
  Au  -8.87910   9.45844   5.48759     9
  Au  -9.45844   5.48759   8.87910     9
  Au  -7.94171   7.94171   7.94171     9
  Au  -6.42498  10.39584   7.00432     9
  Au  -8.52105   3.97086  11.33323     9
  Au  -7.00432   6.42498  10.39584     9
  Au  -5.48759   8.87910   9.45844     9
  Au  -3.97086  11.33323   8.52105     9
  Au -12.27062  10.03778  -1.51673     8
  Au  -9.81650  10.97518  -3.03346     8
  Au  -7.36237  11.91257  -4.55020     8
  Au  -4.90825  12.84996  -6.06693     8
  Au  -2.45412  13.78735  -7.58366     8
  Au  -7.58366   2.45412 -13.78735     8
  Au  -6.06693   4.90825 -12.84996     8
  Au  -4.55020   7.36237 -11.91257     8
  Au  -3.03346   9.81650 -10.97518     8
  Au  -1.51673  12.27062 -10.03778     8
  Au -11.33323   8.52105  -3.97086     9
  Au -10.39584   7.00432  -6.42498     9
  Au  -8.87910   9.45844  -5.48759     9
  Au  -9.45844   5.48759  -8.87910     9
  Au  -7.94171   7.94171  -7.94171     9
  Au  -6.42498  10.39584  -7.00432     9
  Au  -8.52105   3.97086 -11.33323     9
  Au  -7.00432   6.42498 -10.39584     9
  Au  -5.48759   8.87910  -9.45844     9
  Au  -3.97086  11.33323  -8.52105     9
  Au  -9.81650  10.97518   0.00000     9
  Au  -7.36237  11.91257   1.51673     9
  Au  -7.36237  11.91257  -1.51673     9
  Au  -4.90825  12.84996   3.03346     9
  Au  -4.90825  12.84996   0.00000     9
  Au  -4.90825  12.84996  -3.03346     9
  Au  -2.45412  13.78735   4.55020     9
  Au  -2.45412  13.78735   1.51673     9
  Au  -2.45412  13.78735  -1.51673     9
  Au  -2.45412  13.78735  -4.55020     9
  Au -12.27062 -10.03778   1.51673     8
  Au  -9.81650 -10.97518   3.03346     8
  Au  -7.36237 -11.91257   4.55020     8
  Au  -4.90825 -12.84996   6.06693     8
  Au  -2.45412 -13.78735   7.58366     8
  Au  -7.58366  -2.45412  13.78735     8
  Au  -6.06693  -4.90825  12.84996     8
  Au  -4.55020  -7.36237  11.91257     8
  Au  -3.03346  -9.81650  10.97518     8
  Au  -1.51673 -12.27062  10.03778     8
  Au -11.33323  -8.52105   3.97086     9
  Au -10.39584  -7.00432   6.42498     9
  Au  -8.87910  -9.45844   5.48759     9
  Au  -9.45844  -5.48759   8.87910     9
  Au  -7.94171  -7.94171   7.94171     9
  Au  -6.42498 -10.39584   7.00432     9
  Au  -8.52105  -3.97086  11.33323     9
  Au  -7.00432  -6.42498  10.39584     9
  Au  -5.48759  -8.87910   9.45844     9
  Au  -3.97086 -11.33323   8.52105     9
  Au -12.27062 -10.03778  -1.51673     8
  Au  -9.81650 -10.97518  -3.03346     8
  Au  -7.36237 -11.91257  -4.55020     8
  Au  -4.90825 -12.84996  -6.06693     8
  Au  -2.45412 -13.78735  -7.58366     8
  Au  -7.58366  -2.45412 -13.78735     8
  Au  -6.06693  -4.90825 -12.84996     8
  Au  -4.55020  -7.36237 -11.91257     8
  Au  -3.03346  -9.81650 -10.97518     8
  Au  -1.51673 -12.27062 -10.03778     8
  Au -11.33323  -8.52105  -3.97086     9
  Au -10.39584  -7.00432  -6.42498     9
  Au  -8.87910  -9.45844  -5.48759     9
  Au  -9.45844  -5.48759  -8.87910     9
  Au  -7.94171  -7.94171  -7.94171     9
  Au  -6.42498 -10.39584  -7.00432     9
  Au  -8.52105  -3.97086 -11.33323     9
  Au  -7.00432  -6.42498 -10.39584     9
  Au  -5.48759  -8.87910  -9.45844     9
  Au  -3.97086 -11.33323  -8.52105     9
  Au  -9.81650 -10.97518   0.00000     9
  Au  -7.36237 -11.91257   1.51673     9
  Au  -7.36237 -11.91257  -1.51673     9
  Au  -4.90825 -12.84996   3.03346     9
  Au  -4.90825 -12.84996   0.00000     9
  Au  -4.90825 -12.84996  -3.03346     9
  Au  -2.45412 -13.78735   4.55020     9
  Au  -2.45412 -13.78735   1.51673     9
  Au  -2.45412 -13.78735  -1.51673     9
  Au  -2.45412 -13.78735  -4.55020     9
  Au   6.06693   0.00000  14.72474     8
  Au   3.03346   0.00000  14.72474     8
  Au   0.00000   0.00000  14.72474     8
  Au  -3.03346   0.00000  14.72474     8
  Au  -6.06693   0.00000  14.72474     8
  Au   4.55020   2.45412  13.78735     9
  Au   1.51673   2.45412  13.78735     9
  Au   3.03346   4.90825  12.84996     9
  Au  -1.51673   2.45412  13.78735     9
  Au   0.00000   4.90825  12.84996     9
  Au   1.51673   7.36237  11.91257     9
  Au  -4.55020   2.45412  13.78735     9
  Au  -3.03346   4.90825  12.84996     9
  Au  -1.51673   7.36237  11.91257     9
  Au   0.00000   9.81650  10.97518     9
  Au   4.55020  -2.45412  13.78735     9
  Au   1.51673  -2.45412  13.78735     9
  Au   3.03346  -4.90825  12.84996     9
  Au  -1.51673  -2.45412  13.78735     9
  Au   0.00000  -4.90825  12.84996     9
  Au   1.51673  -7.36237  11.91257     9
  Au  -4.55020  -2.45412  13.78735     9
  Au  -3.03346  -4.90825  12.84996     9
  Au  -1.51673  -7.36237  11.91257     9
  Au   0.00000  -9.81650  10.97518     9
  Au   6.06693   0.00000 -14.72474     8
  Au   3.03346   0.00000 -14.72474     8
  Au   0.00000   0.00000 -14.72474     8
  Au  -3.03346   0.00000 -14.72474     8
  Au  -6.06693   0.00000 -14.72474     8
  Au   4.55020   2.45412 -13.78735     9
  Au   1.51673   2.45412 -13.78735     9
  Au   3.03346   4.90825 -12.84996     9
  Au  -1.51673   2.45412 -13.78735     9
  Au   0.00000   4.90825 -12.84996     9
  Au   1.51673   7.36237 -11.91257     9
  Au  -4.55020   2.45412 -13.78735     9
  Au  -3.03346   4.90825 -12.84996     9
  Au  -1.51673   7.36237 -11.91257     9
  Au   0.00000   9.81650 -10.97518     9
  Au   4.55020  -2.45412 -13.78735     9
  Au   1.51673  -2.45412 -13.78735     9
  Au   3.03346  -4.90825 -12.84996     9
  Au  -1.51673  -2.45412 -13.78735     9
  Au   0.00000  -4.90825 -12.84996     9
  Au   1.51673  -7.36237 -11.91257     9
  Au  -4.55020  -2.45412 -13.78735     9
  Au  -3.03346  -4.90825 -12.84996     9
  Au  -1.51673  -7.36237 -11.91257     9
  Au   0.00000  -9.81650 -10.97518     9
